1g4u_R_AF3_1002
     RDKit          3D

  4  3  0  0  0  0  0  0  0  0999 V2000
  -58.8620   50.4470  -42.9760 Al  0  0  0  0  0  3  0  0  0  0  0  0
  -58.4950   48.7450  -42.8870 F   0  0  0  0  0  0  0  0  0  0  0  0
  -59.7310   51.2370  -44.1930 F   0  0  0  0  0  0  0  0  0  0  0  0
  -58.3420   51.1620  -41.6060 F   0  0  0  0  0  0  0  0  0  0  0  0
  1  2  1  0
  1  3  1  0
  1  4  1  0
M  END
$$$$
