2prl_A_ORO_399
     RDKit          3D

 11 11  0  0  0  0  0  0  0  0999 V2000
   40.6870   33.4250    5.1530 C   0  0  0  0  0  3  0  0  0  0  0  0
   41.0090   32.8490    7.3910 C   0  0  0  0  0  3  0  0  0  0  0  0
   41.9940   31.9390    7.0190 C   0  0  0  0  0  2  0  0  0  0  0  0
   42.2990   31.8230    5.6700 C   0  0  0  0  0  3  0  0  0  0  0  0
   43.3170   30.8360    5.1970 C   0  0  0  0  0  3  0  0  0  0  0  0
   41.6360   32.5610    4.7670 N   0  0  0  0  0  2  0  0  0  0  0  0
   40.3780   33.5770    6.4510 N   0  0  0  0  0  2  0  0  0  0  0  0
   40.1040   34.0940    4.2830 O   0  0  0  0  0  1  0  0  0  0  0  0
   40.7200   32.9760    8.6030 O   0  0  0  0  0  1  0  0  0  0  0  0
   44.4240   30.7030    5.7610 O   0  0  0  0  0  1  0  0  0  0  0  0
   42.9730   30.1280    4.2300 O   0  0  0  0  0  1  0  0  0  0  0  0
  1  6  1  0
  1  7  1  0
  1  8  1  0
  2  3  1  0
  2  7  1  0
  2  9  1  0
  3  4  1  0
  4  5  1  0
  4  6  1  0
  5 10  1  0
  5 11  1  0
M  END
$$$$
