4b9k_F_TG0_1206
     RDKit          3D

 32 35  0  0  0  0  0  0  0  0999 V2000
   40.4500   29.1730   -3.7260 C   0  0  0  0  0  3  0  0  0  0  0  0
   40.3950   29.5350   -2.3580 C   0  0  0  0  0  3  0  0  0  0  0  0
   41.5410   29.2480   -1.4360 C   0  0  0  0  0  1  0  0  0  0  0  0
   39.2420   30.2170   -1.8910 C   0  0  0  0  0  3  0  0  0  0  0  0
   39.0970   30.6230   -0.4320 C   0  0  0  0  0  3  0  0  0  0  0  0
   38.6040   29.8870    1.9770 C   0  0  0  0  0  3  0  0  0  0  0  0
   39.8520   30.4800    2.6220 C   0  0  0  0  0  3  0  0  0  0  0  0
   40.8540   31.9030    4.3840 C   0  0  0  0  0  2  0  0  0  0  0  0
   41.1150   30.9780    5.5820 C   0  0  0  0  0  3  0  0  0  0  0  0
   40.1480   30.0120    6.0000 C   0  0  0  0  0  2  0  0  0  0  0  0
   40.4100   29.1860    7.1080 C   0  0  0  0  0  2  0  0  0  0  0  0
   41.6260   29.3100    7.7930 C   0  0  0  0  0  3  0  0  0  0  0  0
   41.8720   28.4550    9.0260 C   0  0  0  0  0  3  0  0  0  0  0  0
   42.4460   28.9160   10.2700 C   0  0  0  0  0  3  0  0  0  0  0  0
   42.9660   30.2960   10.6010 C   0  0  0  0  0  1  0  0  0  0  0  0
   41.9080   26.6370   10.7100 C   0  0  0  0  0  2  0  0  0  0  0  0
   42.5810   30.2610    7.3680 C   0  0  0  0  0  2  0  0  0  0  0  0
   42.3320   31.0950    6.2730 C   0  0  0  0  0  2  0  0  0  0  0  0
   38.2870   28.5870    2.6480 C   0  0  0  0  0  2  0  0  0  0  0  0
   37.7410   27.7970    1.5180 C   0  0  0  0  0  3  0  0  0  0  0  0
   38.5100   28.1830    0.2760 C   0  0  0  0  0  2  0  0  0  0  0  0
   38.1530   30.4630   -2.7250 C   0  0  0  0  0  2  0  0  0  0  0  0
   38.2250   30.1130   -4.0740 C   0  0  0  0  0  2  0  0  0  0  0  0
   39.3600   29.4540   -4.5530 C   0  0  0  0  0  2  0  0  0  0  0  0
   41.5670   28.4710   -4.3270 N   0  0  0  0  0  1  0  0  0  0  0  0
   38.7750   29.6040    0.5380 N   0  0  0  0  0  0  0  0  0  0  0  0
   39.6710   31.4100    3.7020 N   0  0  0  0  0  2  0  0  0  0  0  0
   42.4450   27.8040   11.2340 N   0  0  0  0  0  2  0  0  0  0  0  0
   40.9960   30.1660    2.2540 O   0  0  0  0  0  1  0  0  0  0  0  0
   36.4180   28.1550    1.2810 O   0  0  0  0  0  1  0  0  0  0  0  0
   39.2580   31.7840   -0.0540 O   0  0  0  0  0  1  0  0  0  0  0  0
   41.4540   26.8840    9.1690 S   0  0  0  0  0  0  0  0  0  0  0  0
  1  2  1  0
  1 24  1  0
  1 25  1  0
  2  3  1  0
  2  4  1  0
  4  5  1  0
  4 22  1  0
  5 26  1  0
  5 31  1  0
  6  7  1  0
  6 19  1  0
  6 26  1  0
  7 27  1  0
  7 29  1  0
  8  9  1  0
  8 27  1  0
  9 10  1  0
  9 18  1  0
 10 11  1  0
 11 12  1  0
 12 13  1  0
 12 17  1  0
 13 14  1  0
 13 32  1  0
 14 15  1  0
 14 28  1  0
 16 28  1  0
 16 32  1  0
 17 18  1  0
 19 20  1  0
 20 21  1  0
 20 30  1  0
 21 26  1  0
 22 23  1  0
 23 24  1  0
M  END
$$$$
