4d1o_A_ARG_700
     RDKit          3D

 12 11  0  0  0  0  0  0  0  0999 V2000
   16.2340  245.6500   24.6960 C   0  0  0  0  0  3  0  0  0  0  0  0
   16.3940  244.5210   25.6730 C   0  0  0  0  0  3  0  0  0  0  0  0
   17.0330  245.0540   26.9590 C   0  0  0  0  0  2  0  0  0  0  0  0
   18.1670  244.4460   29.1750 C   0  0  0  0  0  2  0  0  0  0  0  0
   17.3050  243.9560   27.9980 C   0  0  0  0  0  2  0  0  0  0  0  0
   20.5290  245.3160   29.2890 C   0  0  0  0  0  3  0  0  0  0  0  0
   17.2920  243.5740   25.0460 N   0  0  0  0  0  1  0  0  0  0  0  0
   19.4760  244.8160   28.6310 N   0  0  0  0  0  2  0  0  0  0  0  0
   20.4920  245.5610   30.6030 N   0  0  0  0  0  1  0  0  0  0  0  0
   21.6390  245.5800   28.6150 N   0  0  0  0  0  1  0  0  0  0  0  0
   15.6050  246.6640   25.0460 O   0  0  0  0  0  1  0  0  0  0  0  0
   16.7820  245.5430   23.5710 O   0  0  0  0  0  1  0  0  0  0  0  0
  1  2  1  0
  1 11  1  0
  1 12  1  0
  2  3  1  0
  2  7  1  0
  3  5  1  0
  4  5  1  0
  4  8  1  0
  6  8  1  0
  6  9  1  0
  6 10  1  0
M  END
$$$$
