4g5j_A_0WM_1102
     RDKit          3D

 34 37  0  0  0  0  0  0  0  0999 V2000
   59.2740   -5.5600   -5.4350 C   0  0  0  0  0  2  0  0  0  0  0  0
   57.4470   -2.4220   -5.2680 C   0  0  0  0  0  2  0  0  0  0  0  0
   64.3740   -6.4410   -5.9590 C   0  0  0  0  0  3  0  0  0  0  0  0
   65.6050   -5.8270   -6.0460 C   0  0  0  0  0  3  0  0  0  0  0  0
   63.2330   -5.6810   -5.7660 C   0  0  0  0  0  2  0  0  0  0  0  0
   65.7080   -4.4560   -5.9380 C   0  0  0  0  0  2  0  0  0  0  0  0
   63.3190   -4.2880   -5.6560 C   0  0  0  0  0  3  0  0  0  0  0  0
   64.5710   -3.6950   -5.7480 C   0  0  0  0  0  2  0  0  0  0  0  0
   55.2490   -0.3470   -5.3240 C   0  0  0  0  0  3  0  0  0  0  0  0
   54.5100    0.9580   -5.6420 C   0  0  0  0  0  2  0  0  0  0  0  0
   53.9790    0.5270   -3.4790 C   0  0  0  0  0  2  0  0  0  0  0  0
   54.5850   -0.7520   -4.0380 C   0  0  0  0  0  2  0  0  0  0  0  0
   60.1170    1.7410   -5.2550 C   0  0  0  0  0  3  0  0  0  0  0  0
   59.6350    3.1390   -5.1770 C   0  0  0  0  0  2  0  0  0  0  0  0
   60.4130    4.2250   -5.1320 C   0  0  0  0  0  2  0  0  0  0  0  0
   59.6420    5.5360   -5.0330 C   0  0  0  0  0  2  0  0  0  0  0  0
   60.6520    6.3280   -7.0930 C   0  0  0  0  0  1  0  0  0  0  0  0
   59.3680    7.8060   -5.7180 C   0  0  0  0  0  1  0  0  0  0  0  0
   60.8640   -3.7580   -5.4100 C   0  0  0  0  0  3  0  0  0  0  0  0
   58.5230   -3.2900   -5.3280 C   0  0  0  0  0  3  0  0  0  0  0  0
   59.8330   -2.8180   -5.3470 C   0  0  0  0  0  3  0  0  0  0  0  0
   58.9600   -0.5650   -5.2490 C   0  0  0  0  0  3  0  0  0  0  0  0
   60.0460   -1.4350   -5.3060 C   0  0  0  0  0  2  0  0  0  0  0  0
   57.6610   -1.0510   -5.2280 C   0  0  0  0  0  3  0  0  0  0  0  0
   64.2700   -8.1540   -6.0930 Cl  0  0  0  0  0  0  0  0  0  0  0  0
   66.6920   -6.5510   -6.2300 F   0  0  0  0  0  0  0  0  0  0  0  0
   62.2280   -3.3890   -5.4580 N   0  0  0  0  0  2  0  0  0  0  0  0
   60.5650   -5.1010   -5.4540 N   0  0  0  0  0  2  0  0  0  0  0  0
   59.0560    0.8470   -5.2110 N   0  0  0  0  0  2  0  0  0  0  0  0
   58.2530   -4.6420   -5.3720 N   0  0  0  0  0  2  0  0  0  0  0  0
   60.2910    6.6650   -5.7020 N   0  0  0  0  0  0  0  0  0  0  0  0
   56.6520   -0.1230   -5.1690 O   0  0  0  0  0  0  0  0  0  0  0  0
   54.2050    1.5920   -4.3980 O   0  0  0  0  0  0  0  0  0  0  0  0
   61.2940    1.4440   -5.3240 O   0  0  0  0  0  1  0  0  0  0  0  0
  1 28  1  0
  1 30  1  0
  2 20  1  0
  2 24  1  0
  3  4  1  0
  3  5  1  0
  3 25  1  0
  4  6  1  0
  4 26  1  0
  5  7  1  0
  6  8  1  0
  7  8  1  0
  7 27  1  0
  9 10  1  0
  9 12  1  0
  9 32  1  0
 10 33  1  0
 11 12  1  0
 11 33  1  0
 13 14  1  0
 13 29  1  0
 13 34  1  0
 14 15  1  0
 15 16  1  0
 16 31  1  0
 17 31  1  0
 18 31  1  0
 19 21  1  0
 19 27  1  0
 19 28  1  0
 20 21  1  0
 20 30  1  0
 21 23  1  0
 22 23  1  0
 22 24  1  0
 22 29  1  0
 24 32  1  0
M  END
$$$$
