5kh9_A_6T5_1305
     RDKit          3D

 18 19  0  0  0  0  0  0  0  0999 V2000
   -0.5800    1.0820    9.2580 C   0  0  0  0  0  1  0  0  0  0  0  0
   -1.1560    2.1960    8.4540 C   0  0  0  0  0  3  0  0  0  0  0  0
   -9.1410    2.3520   10.0530 C   0  0  0  0  0  3  0  0  0  0  0  0
   -9.9690    1.7280    8.9240 C   0  0  0  0  0  1  0  0  0  0  0  0
   -9.5900    3.7860   10.3690 C   0  0  0  0  0  1  0  0  0  0  0  0
   -2.5700    2.5260    8.4940 C   0  0  0  0  0  3  0  0  0  0  0  0
   -2.1880    4.2590    6.9760 C   0  0  0  0  0  3  0  0  0  0  0  0
   -4.8540    2.1240    9.4900 C   0  0  0  0  0  3  0  0  0  0  0  0
   -5.6820    2.4290    8.4070 C   0  0  0  0  0  2  0  0  0  0  0  0
   -7.0530    2.5070    8.5830 C   0  0  0  0  0  2  0  0  0  0  0  0
   -7.6360    2.2580    9.8240 C   0  0  0  0  0  3  0  0  0  0  0  0
   -6.8050    1.8980   10.8830 C   0  0  0  0  0  2  0  0  0  0  0  0
   -5.4340    1.8060   10.7170 C   0  0  0  0  0  2  0  0  0  0  0  0
   -3.0500    3.5530    7.7780 N   0  0  0  0  0  2  0  0  0  0  0  0
   -0.8810    3.8960    6.9610 N   0  0  0  0  0  2  0  0  0  0  0  0
   -0.3480    2.8810    7.7180 N   0  0  0  0  0  2  0  0  0  0  0  0
   -3.4410    2.0250    9.3930 N   0  0  0  0  0  2  0  0  0  0  0  0
   -2.5520    5.2170    6.2630 O   0  0  0  0  0  1  0  0  0  0  0  0
  1  2  1  0
  2  6  1  0
  2 16  1  0
  3  4  1  0
  3  5  1  0
  3 11  1  0
  6 14  1  0
  6 17  1  0
  7 14  1  0
  7 15  1  0
  7 18  1  0
  8  9  1  0
  8 13  1  0
  8 17  1  0
  9 10  1  0
 10 11  1  0
 11 12  1  0
 12 13  1  0
 15 16  1  0
M  END
$$$$
