6ehj_A_MYA_503
     RDKit          3D

 63 65  0  0  0  0  0  0  0  0999 V2000
   16.8690   60.7310   23.9160 C   0  0  0  0  0  3  0  0  0  0  0  0
   17.9340   59.6340   24.0700 C   0  0  0  0  0  0  0  0  0  0  0  0
   18.7280   59.8770   25.3450 C   0  0  0  0  0  2  0  0  0  0  0  0
   18.9240   59.5940   22.9060 C   0  0  0  0  0  1  0  0  0  0  0  0
   17.1900   58.3170   24.1690 C   0  0  0  0  0  1  0  0  0  0  0  0
   23.8480   58.4750   26.8920 C   0  0  0  0  0  3  0  0  0  0  0  0
   19.5400   57.2550   18.1630 C   0  0  0  0  0  2  0  0  0  0  0  0
   24.0220   55.9690   23.2560 C   0  0  0  0  0  2  0  0  0  0  0  0
   20.8890   54.9420   17.9280 C   0  0  0  0  0  3  0  0  0  0  0  0
   24.6490   59.7020   27.2920 C   0  0  0  0  0  3  0  0  0  0  0  0
   19.5140   58.3610   19.2050 C   0  0  0  0  0  2  0  0  0  0  0  0
   21.8670   54.1710   18.7520 C   0  0  0  0  0  2  0  0  0  0  0  0
   24.5550   59.6780   28.8000 C   0  0  0  0  0  3  0  0  0  0  0  0
   23.4500   57.8250   24.5390 C   0  0  0  0  0  3  0  0  0  0  0  0
   21.4770   53.7970   20.1790 C   0  0  0  0  0  2  0  0  0  0  0  0
   23.1680   59.0890   29.0410 C   0  0  0  0  0  3  0  0  0  0  0  0
   17.8590   60.0560   19.4240 C   0  0  0  0  0  3  0  0  0  0  0  0
   22.7750   58.4320   23.3770 C   0  0  0  0  0  3  0  0  0  0  0  0
   22.5710   52.8970   20.7620 C   0  0  0  0  0  2  0  0  0  0  0  0
   22.1220   60.1710   29.2860 C   0  0  0  0  0  2  0  0  0  0  0  0
   16.3810   60.3820   19.4850 C   0  0  0  0  0  2  0  0  0  0  0  0
   22.7890   57.6470   22.1240 C   0  0  0  0  0  3  0  0  0  0  0  0
   22.6140   52.8400   22.3040 C   0  0  0  0  0  2  0  0  0  0  0  0
   16.1300   61.6290   20.3330 C   0  0  0  0  0  2  0  0  0  0  0  0
   23.7770   52.0460   22.9540 C   0  0  0  0  0  2  0  0  0  0  0  0
   22.6180   59.7640   25.0910 C   0  0  0  0  0  2  0  0  0  0  0  0
   23.7040   50.5060   22.7860 C   0  0  0  0  0  2  0  0  0  0  0  0
   16.1630   60.7040   22.5860 C   0  0  0  0  0  3  0  0  0  0  0  0
   24.8610   49.7460   23.4580 C   0  0  0  0  0  2  0  0  0  0  0  0
   24.9220   48.2520   23.0970 C   0  0  0  0  0  2  0  0  0  0  0  0
   23.8800   47.4260   23.8520 C   0  0  0  0  0  2  0  0  0  0  0  0
   23.7800   45.9760   23.3680 C   0  0  0  0  0  2  0  0  0  0  0  0
   24.9520   45.0830   23.7960 C   0  0  0  0  0  2  0  0  0  0  0  0
   24.6420   43.5940   23.5720 C   0  0  0  0  0  2  0  0  0  0  0  0
   25.8450   42.6980   23.8190 C   0  0  0  0  0  1  0  0  0  0  0  0
   23.4230   56.4530   22.1600 N   0  0  0  0  0  2  0  0  0  0  0  0
   24.0470   56.6210   24.4290 N   0  0  0  0  0  2  0  0  0  0  0  0
   18.1970   58.7870   19.6210 N   0  0  0  0  0  2  0  0  0  0  0  0
   22.2010   58.1030   20.9850 N   0  0  0  0  0  1  0  0  0  0  0  0
   22.2840   59.6250   23.7790 N   0  0  0  0  0  2  0  0  0  0  0  0
   16.6980   61.4940   21.6530 N   0  0  0  0  0  2  0  0  0  0  0  0
   23.3090   58.6880   25.5350 N   0  0  0  0  0  0  0  0  0  0  0  0
   17.4550   62.0300   24.0550 O   0  0  0  0  0  1  0  0  0  0  0  0
   19.4240   61.2540   30.8950 O   0  0  0  0  0  1  0  0  0  0  0  0
   18.3540   59.2970   29.7870 O   0  0  0  0  0  1  0  0  0  0  0  0
   19.7780   54.5680   18.0820 O   0  0  0  0  0  1  0  0  0  0  0  0
   26.0040   59.5970   26.8280 O   0  0  0  0  0  1  0  0  0  0  0  0
   19.4420   61.0930   28.3280 O   0  0  0  0  0  0  0  0  0  0  0  0
   25.5550   58.7860   29.2980 O   0  0  0  0  0  0  0  0  0  0  0  0
   16.8790   61.4080   28.3800 O   0  0  0  0  0  1  0  0  0  0  0  0
   22.7930   58.3680   27.8560 O   0  0  0  0  0  0  0  0  0  0  0  0
   18.6990   60.9090   19.1780 O   0  0  0  0  0  1  0  0  0  0  0  0
   18.2510   62.5250   26.6150 O   0  0  0  0  0  1  0  0  0  0  0  0
   20.9280   59.5330   29.7360 O   0  0  0  0  0  0  0  0  0  0  0  0
   17.8580   60.0470   26.4660 O   0  0  0  0  0  0  0  0  0  0  0  0
   27.9880   58.2080   29.8510 O   0  0  0  0  0  1  0  0  0  0  0  0
   26.6910   59.7770   31.3390 O   0  0  0  0  0  1  0  0  0  0  0  0
   15.1580   60.0250   22.4050 O   0  0  0  0  0  1  0  0  0  0  0  0
   27.4290   60.4710   29.0550 O   0  0  0  0  0  1  0  0  0  0  0  0
   19.5070   60.2940   29.7270 P   0  0  0  0  0  4  0  0  0  0  0  0
   18.0860   61.2840   27.4780 P   0  0  0  0  0  4  0  0  0  0  0  0
   26.9520   59.3190   29.9070 P   0  0  0  0  0  4  0  0  0  0  0  0
   21.1580   56.5660   18.1390 S   0  0  0  0  0  0  0  0  0  0  0  0
  1  2  1  0
  1 28  1  0
  1 43  1  0
  2  3  1  0
  2  4  1  0
  2  5  1  0
  3 55  1  0
  6 10  1  0
  6 42  1  0
  6 51  1  0
  7 11  1  0
  7 63  1  0
  8 36  1  0
  8 37  1  0
  9 12  1  0
  9 46  1  0
  9 63  1  0
 10 13  1  0
 10 47  1  0
 11 38  1  0
 12 15  1  0
 13 16  1  0
 13 49  1  0
 14 18  1  0
 14 37  1  0
 14 42  1  0
 15 19  1  0
 16 20  1  0
 16 51  1  0
 17 21  1  0
 17 38  1  0
 17 52  1  0
 18 22  1  0
 18 40  1  0
 19 23  1  0
 20 54  1  0
 21 24  1  0
 22 36  1  0
 22 39  1  0
 23 25  1  0
 24 41  1  0
 25 27  1  0
 26 40  1  0
 26 42  1  0
 27 29  1  0
 28 41  1  0
 28 58  1  0
 29 30  1  0
 30 31  1  0
 31 32  1  0
 32 33  1  0
 33 34  1  0
 34 35  1  0
 44 60  1  0
 45 60  1  0
 48 60  1  0
 48 61  1  0
 49 62  1  0
 50 61  1  0
 53 61  1  0
 54 60  1  0
 55 61  1  0
 56 62  1  0
 57 62  1  0
 59 62  1  0
M  END
$$$$
