6ehj_B_SER_509
     RDKit          3D

  6  5  0  0  0  0  0  0  0  0999 V2000
   58.4840   89.8920   36.0000 C   0  0  0  0  0  2  0  0  0  0  0  0
   59.2040   89.1110   37.0900 C   0  0  0  0  0  3  0  0  0  0  0  0
   60.5730   88.6130   36.5780 C   0  0  0  0  0  2  0  0  0  0  0  0
   58.3780   88.0000   37.5290 N   0  0  0  0  0  1  0  0  0  0  0  0
   57.5470   89.3970   35.3630 O   0  0  0  0  0  1  0  0  0  0  0  0
   61.2000   89.5590   35.7210 O   0  0  0  0  0  1  0  0  0  0  0  0
  1  2  1  0
  1  5  1  0
  2  3  1  0
  2  4  1  0
  3  6  1  0
M  END
$$$$
