6ehj_B_PRO_511
     RDKit          3D

  7  7  0  0  0  0  0  0  0  0999 V2000
   61.3470   95.0730   33.2980 C   0  0  0  0  0  2  0  0  0  0  0  0
   60.7660   94.0080   32.3810 C   0  0  0  0  0  3  0  0  0  0  0  0
   60.1750   94.6270   31.1080 C   0  0  0  0  0  2  0  0  0  0  0  0
   58.4560   93.3020   32.0700 C   0  0  0  0  0  2  0  0  0  0  0  0
   59.0360   93.7390   30.7540 C   0  0  0  0  0  2  0  0  0  0  0  0
   59.6150   93.3220   32.9840 N   0  0  0  0  0  2  0  0  0  0  0  0
   60.6190   95.8890   33.8820 O   0  0  0  0  0  1  0  0  0  0  0  0
  1  2  1  0
  1  7  1  0
  2  3  1  0
  2  6  1  0
  3  5  1  0
  4  5  1  0
  4  6  1  0
M  END
$$$$
