6p0i_B_NL7_405
     RDKit          3D

 32 33  0  0  0  0  0  0  0  0999 V2000
   18.6600    1.3550   10.2510 C   0  0  0  0  0  0  0  0  0  0  0  0
   20.4780    0.9210    8.8140 C   0  0  0  0  0  3  0  0  0  0  0  0
   19.6020    0.4500    7.8040 C   0  0  0  0  0  3  0  0  0  0  0  0
   21.2960    0.1460    6.3010 C   0  0  0  0  0  3  0  0  0  0  0  0
   22.2590    0.6000    7.1680 C   0  0  0  0  0  3  0  0  0  0  0  0
   25.3640    0.6860    8.8240 C   0  0  0  0  0  3  0  0  0  0  0  0
   25.1170    1.0930   10.1080 C   0  0  0  0  0  3  0  0  0  0  0  0
   25.6000    0.4440   11.2080 C   0  0  0  0  0  3  0  0  0  0  0  0
   26.3600   -0.7100   11.1130 C   0  0  0  0  0  3  0  0  0  0  0  0
   26.6160   -1.1360    9.8030 C   0  0  0  0  0  3  0  0  0  0  0  0
   26.1380   -0.4640    8.6820 C   0  0  0  0  0  3  0  0  0  0  0  0
   21.8000    0.9840    8.4280 C   0  0  0  0  0  3  0  0  0  0  0  0
   18.2130    1.8800    9.6140 H   0  0  0  0  0  0  0  0  0  0  0  0
   18.4580    1.7200   11.0930 H   0  0  0  0  0  0  0  0  0  0  0  0
   18.2660    0.5030   10.2250 H   0  0  0  0  0  0  0  0  0  0  0  0
   18.6910    0.4050    7.9800 H   0  0  0  0  0  0  0  0  0  0  0  0
   21.4990   -0.1340    5.4380 H   0  0  0  0  0  0  0  0  0  0  0  0
   23.7520    0.1580    6.0740 H   0  0  0  0  0  0  0  0  0  0  0  0
   24.5940    1.8500   10.2390 H   0  0  0  0  0  0  0  0  0  0  0  0
   25.4190    0.7810   12.0550 H   0  0  0  0  0  0  0  0  0  0  0  0
   27.1280   -1.9020    9.6820 H   0  0  0  0  0  0  0  0  0  0  0  0
   26.3360   -0.7840    7.8330 H   0  0  0  0  0  0  0  0  0  0  0  0
   22.4090    1.3030    9.0530 H   0  0  0  0  0  0  0  0  0  0  0  0
   20.0220    0.0610    6.5880 N   0  0  0  0  0  2  0  0  0  0  0  0
   23.5920    0.6650    6.7600 N   0  0  0  0  0  0  0  0  0  0  0  0
   20.0410    1.3040   10.0170 O   0  0  0  0  0  0  0  0  0  0  0  0
   24.1660    2.7750    7.9880 O   0  0  0  0  0  1  0  0  0  0  0  0
   25.7820    1.7550    6.5490 O   0  0  0  0  0  1  0  0  0  0  0  0
   26.8640   -0.5810   13.6180 O   0  0  0  0  0  1  0  0  0  0  0  0
   28.1150   -2.1740   12.4080 O   0  0  0  0  0  1  0  0  0  0  0  0
   24.7090    1.5710    7.4720 S   0  0  0  0  0  4  0  0  0  0  0  0
   26.9000   -1.5120   12.5710 S   0  0  0  0  0  3  0  0  0  0  0  0
  1 13  1  0
  1 14  1  0
  1 15  1  0
  1 26  1  0
  2  3  1  0
  2 12  1  0
  2 26  1  0
  3 16  1  0
  3 24  1  0
  4  5  1  0
  4 17  1  0
  4 24  1  0
  5 12  1  0
  5 25  1  0
  6  7  1  0
  6 11  1  0
  6 31  1  0
  7  8  1  0
  7 19  1  0
  8  9  1  0
  8 20  1  0
  9 10  1  0
  9 32  1  0
 10 11  1  0
 10 21  1  0
 11 22  1  0
 12 23  1  0
 18 25  1  0
 25 31  1  0
 27 31  1  0
 28 31  1  0
 29 32  1  0
 30 32  1  0
M  END
$$$$
