6p0m_B_NLM_501
     RDKit          3D

 28 29  0  0  0  0  0  0  0  0999 V2000
   26.2880   -0.6850   11.2240 C   0  0  0  0  0  3  0  0  0  0  0  0
   25.5780    0.4780   11.2610 C   0  0  0  0  0  3  0  0  0  0  0  0
   25.1360    1.1260   10.1170 C   0  0  0  0  0  3  0  0  0  0  0  0
   25.3640    0.6430    8.8430 C   0  0  0  0  0  3  0  0  0  0  0  0
   22.2430    0.7620    7.6160 C   0  0  0  0  0  3  0  0  0  0  0  0
   21.0380    0.4620    9.5760 C   0  0  0  0  0  3  0  0  0  0  0  0
   19.8640    0.6450    8.9430 C   0  0  0  0  0  3  0  0  0  0  0  0
   19.9070    0.9160    7.5980 C   0  0  0  0  0  3  0  0  0  0  0  0
   21.0990    0.9420    6.9590 C   0  0  0  0  0  3  0  0  0  0  0  0
   26.0870   -0.5310    8.8140 C   0  0  0  0  0  3  0  0  0  0  0  0
   26.5250   -1.1660    9.9540 C   0  0  0  0  0  3  0  0  0  0  0  0
   21.2190    1.2210    5.3030 Cl  0  0  0  0  0  0  0  0  0  0  0  0
   25.3900    0.8420   12.0950 H   0  0  0  0  0  0  0  0  0  0  0  0
   24.6650    1.9210   10.2100 H   0  0  0  0  0  0  0  0  0  0  0  0
   23.4460    0.3820    6.1780 H   0  0  0  0  0  0  0  0  0  0  0  0
   21.0470    0.3140   10.4930 H   0  0  0  0  0  0  0  0  0  0  0  0
   19.0610    0.5890    9.4080 H   0  0  0  0  0  0  0  0  0  0  0  0
   19.1240    1.0810    7.1270 H   0  0  0  0  0  0  0  0  0  0  0  0
   26.2900   -0.9160    7.9940 H   0  0  0  0  0  0  0  0  0  0  0  0
   27.0040   -1.9580    9.8720 H   0  0  0  0  0  0  0  0  0  0  0  0
   23.4880    0.8090    6.9320 N   0  0  0  0  0  0  0  0  0  0  0  0
   22.2350    0.4740    8.9890 N   0  0  0  0  0  2  0  0  0  0  0  0
   27.9610   -2.2480   12.4720 O   0  0  0  0  0  1  0  0  0  0  0  0
   26.7490   -0.5950   13.7740 O   0  0  0  0  0  1  0  0  0  0  0  0
   25.8150    1.5830    6.4880 O   0  0  0  0  0  1  0  0  0  0  0  0
   24.4080    2.7950    8.0520 O   0  0  0  0  0  1  0  0  0  0  0  0
   26.7930   -1.4580   12.6570 S   0  0  0  0  0  3  0  0  0  0  0  0
   24.7940    1.5440    7.4720 S   0  0  0  0  0  4  0  0  0  0  0  0
  1  2  1  0
  1 11  1  0
  1 27  1  0
  2  3  1  0
  2 13  1  0
  3  4  1  0
  3 14  1  0
  4 10  1  0
  4 28  1  0
  5  9  1  0
  5 21  1  0
  5 22  1  0
  6  7  1  0
  6 16  1  0
  6 22  1  0
  7  8  1  0
  7 17  1  0
  8  9  1  0
  8 18  1  0
  9 12  1  0
 10 11  1  0
 10 19  1  0
 11 20  1  0
 15 21  1  0
 21 28  1  0
 23 27  1  0
 24 27  1  0
 25 28  1  0
 26 28  1  0
M  END
$$$$
