6vcu_B_R27_203
     RDKit          3D

134137  0  0  0  0  0  0  0  0999 V2000
   -0.8460  -10.1920    0.6680 C   0  0  0  0  0  0  0  0  0  0  0  0
   -5.0850   -9.5330    7.3490 C   0  0  0  0  0  3  0  0  0  0  0  0
   -6.0860  -10.2630    8.2070 C   0  0  0  0  0  0  0  0  0  0  0  0
   -5.2730  -12.2640    9.6830 C   0  0  0  0  0  3  0  0  0  0  0  0
   -5.1140   -9.7710   10.5440 C   0  0  0  0  0  0  0  0  0  0  0  0
   -6.3100   -8.8840   10.7770 C   0  0  0  0  0  0  0  0  0  0  0  0
   -6.8420   -8.3310    9.5260 C   0  0  0  0  0  0  0  0  0  0  0  0
   -7.2270   -9.3450    8.5520 C   0  0  0  0  0  0  0  0  0  0  0  0
   -1.8940   -7.8770    7.6890 C   0  0  0  0  0  0  0  0  0  0  0  0
   -0.9480   -7.2080    6.6460 C   0  0  0  0  0  0  0  0  0  0  0  0
    0.0790   -6.2900    7.3960 C   0  0  0  0  0  0  0  0  0  0  0  0
   -1.8260  -11.2660    1.1340 C   0  0  0  0  0  0  0  0  0  0  0  0
    1.3160   -7.1210    7.9360 C   0  0  0  0  0  3  0  0  0  0  0  0
    2.1480   -6.4690    9.1060 C   0  0  0  0  0  0  0  0  0  0  0  0
    1.4810   -6.9470   10.3820 C   0  0  0  0  0  3  0  0  0  0  0  0
    0.6000   -6.2150   11.1090 C   0  0  0  0  0  3  0  0  0  0  0  0
   -0.0300   -6.8800   12.4020 C   0  0  0  0  0  0  0  0  0  0  0  0
   -1.4550   -7.3740   12.1080 C   0  0  0  0  0  0  0  0  0  0  0  0
   -2.2490   -7.3570   13.3810 C   0  0  0  0  0  0  0  0  0  0  0  0
   -1.4100   -8.8040   11.4920 C   0  0  0  0  0  0  0  0  0  0  0  0
   -1.2440   -9.9120   12.5420 C   0  0  0  0  0  0  0  0  0  0  0  0
    0.0620  -10.3800   14.5150 C   0  0  0  0  0  0  0  0  0  0  0  0
   -3.4260  -12.7960    0.2250 C   0  0  0  0  0  0  0  0  0  0  0  0
   -1.3340  -11.2580   11.8600 C   0  0  0  0  0  0  0  0  0  0  0  0
   -0.6670  -11.4440   10.4970 C   0  0  0  0  0  0  0  0  0  0  0  0
    1.4770  -11.0950    9.5460 C   0  0  0  0  0  0  0  0  0  0  0  0
   -0.9660  -12.7740    9.9710 C   0  0  0  0  0  0  0  0  0  0  0  0
   -2.4290  -13.0880    9.8890 C   0  0  0  0  0  0  0  0  0  0  0  0
   -2.6300  -14.6150    9.5410 C   0  0  0  0  0  0  0  0  0  0  0  0
   -3.1510  -12.7920   11.1960 C   0  0  0  0  0  0  0  0  0  0  0  0
   -4.6680  -12.7320   11.0400 C   0  0  0  0  0  3  0  0  0  0  0  0
    0.1670   -4.7480   10.7220 C   0  0  0  0  0  0  0  0  0  0  0  0
    3.6020   -6.8540    9.0680 C   0  0  0  0  0  0  0  0  0  0  0  0
   -2.5810  -10.8110    2.3940 C   0  0  0  0  0  0  0  0  0  0  0  0
    4.1660   -6.5530    7.6880 C   0  0  0  0  0  3  0  0  0  0  0  0
    5.2220   -5.8080    7.5480 C   0  0  0  0  0  3  0  0  0  0  0  0
    2.6500  -10.3620    6.6590 C   0  0  0  0  0  3  0  0  0  0  0  0
    1.7200  -10.5030    5.4520 C   0  0  0  0  0  0  0  0  0  0  0  0
   -2.6850   -6.8540    8.4900 C   0  0  0  0  0  0  0  0  0  0  0  0
   -0.4190   -9.5940    3.0830 C   0  0  0  0  0  0  0  0  0  0  0  0
    0.2250   -9.9580    1.7350 C   0  0  0  0  0  0  0  0  0  0  0  0
   -1.6180  -10.4660    3.5290 C   0  0  0  0  0  0  0  0  0  0  0  0
   -2.3380   -9.6030    4.6360 C   0  0  0  0  0  3  0  0  0  0  0  0
   -2.1400   -9.7240    5.9960 C   0  0  0  0  0  3  0  0  0  0  0  0
   -1.2010  -10.7790    6.6380 C   0  0  0  0  0  0  0  0  0  0  0  0
   -2.8810   -8.7520    6.9180 C   0  0  0  0  0  0  0  0  0  0  0  0
    0.4130  -11.1060   -0.3620 H   0  0  0  0  0  0  0  0  0  0  0  0
   -2.9460   -8.9600    4.3480 H   0  0  0  0  0  0  0  0  0  0  0  0
   -0.4370  -10.3330    7.0350 H   0  0  0  0  0  0  0  0  0  0  0  0
   -1.6830  -11.2660    7.3250 H   0  0  0  0  0  0  0  0  0  0  0  0
   -0.8960  -11.3980    5.9560 H   0  0  0  0  0  0  0  0  0  0  0  0
   -3.4370   -8.1580    6.3900 H   0  0  0  0  0  0  0  0  0  0  0  0
   -6.3900  -11.0070    7.6630 H   0  0  0  0  0  0  0  0  0  0  0  0
   -4.3680   -9.2340   10.2340 H   0  0  0  0  0  0  0  0  0  0  0  0
   -4.8680  -10.2080   11.3750 H   0  0  0  0  0  0  0  0  0  0  0  0
   -6.0490   -8.1520   11.3570 H   0  0  0  0  0  0  0  0  0  0  0  0
   -7.0050   -9.4030   11.2110 H   0  0  0  0  0  0  0  0  0  0  0  0
   -1.3140   -9.3610    0.4930 H   0  0  0  0  0  0  0  0  0  0  0  0
   -6.1640   -7.7640    9.1280 H   0  0  0  0  0  0  0  0  0  0  0  0
   -7.6230   -7.7950    9.7350 H   0  0  0  0  0  0  0  0  0  0  0  0
   -7.9540   -9.8730    8.9180 H   0  0  0  0  0  0  0  0  0  0  0  0
   -7.5300   -8.9040    7.7430 H   0  0  0  0  0  0  0  0  0  0  0  0
   -1.3560   -8.3870    8.3150 H   0  0  0  0  0  0  0  0  0  0  0  0
   -0.4880   -7.9130    6.1640 H   0  0  0  0  0  0  0  0  0  0  0  0
   -1.3040   -5.6830    5.6710 H   0  0  0  0  0  0  0  0  0  0  0  0
   -0.3660   -5.8660    8.1460 H   0  0  0  0  0  0  0  0  0  0  0  0
    0.4010   -5.6100    6.7840 H   0  0  0  0  0  0  0  0  0  0  0  0
    2.1500   -5.5020    9.0340 H   0  0  0  0  0  0  0  0  0  0  0  0
   -1.3330  -12.0830    1.3110 H   0  0  0  0  0  0  0  0  0  0  0  0
    1.6900   -7.8000   10.6860 H   0  0  0  0  0  0  0  0  0  0  0  0
   -0.0560   -6.2280   13.1190 H   0  0  0  0  0  0  0  0  0  0  0  0
    0.5200   -7.6300   12.6780 H   0  0  0  0  0  0  0  0  0  0  0  0
   -1.8820   -6.7870   11.4640 H   0  0  0  0  0  0  0  0  0  0  0  0
   -3.0440   -7.9020   13.2720 H   0  0  0  0  0  0  0  0  0  0  0  0
   -2.5070   -6.4450   13.5880 H   0  0  0  0  0  0  0  0  0  0  0  0
   -1.7080   -7.7130   14.1030 H   0  0  0  0  0  0  0  0  0  0  0  0
   -0.6660   -8.8520   10.8710 H   0  0  0  0  0  0  0  0  0  0  0  0
   -2.2350   -8.9590   11.0060 H   0  0  0  0  0  0  0  0  0  0  0  0
   -1.9480   -9.8070   13.2010 H   0  0  0  0  0  0  0  0  0  0  0  0
   -3.4130  -13.0890    1.1500 H   0  0  0  0  0  0  0  0  0  0  0  0
    0.9060  -10.8430   14.6380 H   0  0  0  0  0  0  0  0  0  0  0  0
   -0.0140   -9.6690   15.1710 H   0  0  0  0  0  0  0  0  0  0  0  0
   -0.6690  -11.0060   14.6310 H   0  0  0  0  0  0  0  0  0  0  0  0
   -0.8280  -11.8580   12.4300 H   0  0  0  0  0  0  0  0  0  0  0  0
   -0.9530  -10.7840    9.8460 H   0  0  0  0  0  0  0  0  0  0  0  0
    2.2850  -10.5950    9.7420 H   0  0  0  0  0  0  0  0  0  0  0  0
    1.7130  -11.9480    9.1490 H   0  0  0  0  0  0  0  0  0  0  0  0
    0.9270  -10.5910    8.9270 H   0  0  0  0  0  0  0  0  0  0  0  0
   -0.5900  -12.8400    9.0790 H   0  0  0  0  0  0  0  0  0  0  0  0
   -0.5450  -13.4310   10.5460 H   0  0  0  0  0  0  0  0  0  0  0  0
   -2.9570  -13.4430   -0.3250 H   0  0  0  0  0  0  0  0  0  0  0  0
   -2.8130  -12.5520    9.1770 H   0  0  0  0  0  0  0  0  0  0  0  0
   -3.3390  -14.7070    8.8850 H   0  0  0  0  0  0  0  0  0  0  0  0
   -2.8690  -15.1020   10.3450 H   0  0  0  0  0  0  0  0  0  0  0  0
   -1.8060  -14.9760    9.1780 H   0  0  0  0  0  0  0  0  0  0  0  0
   -3.4450  -14.3330   12.1820 H   0  0  0  0  0  0  0  0  0  0  0  0
    0.7920   -4.1140   11.1070 H   0  0  0  0  0  0  0  0  0  0  0  0
   -0.7230   -4.5720   11.0650 H   0  0  0  0  0  0  0  0  0  0  0  0
    0.1650   -4.6550    9.7570 H   0  0  0  0  0  0  0  0  0  0  0  0
    3.6930   -7.8010    9.2580 H   0  0  0  0  0  0  0  0  0  0  0  0
    4.0910   -6.3500    9.7370 H   0  0  0  0  0  0  0  0  0  0  0  0
   -4.3440  -12.7190   -0.0770 H   0  0  0  0  0  0  0  0  0  0  0  0
    3.7500   -6.9070    6.9350 H   0  0  0  0  0  0  0  0  0  0  0  0
    5.5540   -5.6350    6.6960 H   0  0  0  0  0  0  0  0  0  0  0  0
    5.6430   -5.4460    8.2930 H   0  0  0  0  0  0  0  0  0  0  0  0
    3.0650   -9.1790    8.2750 H   0  0  0  0  0  0  0  0  0  0  0  0
    2.1050  -10.0410    4.6910 H   0  0  0  0  0  0  0  0  0  0  0  0
    1.6090  -11.4430    5.2360 H   0  0  0  0  0  0  0  0  0  0  0  0
    0.8560  -10.1160    5.6620 H   0  0  0  0  0  0  0  0  0  0  0  0
   -3.4020   -7.3010    8.9660 H   0  0  0  0  0  0  0  0  0  0  0  0
   -3.0600   -6.1920    7.8880 H   0  0  0  0  0  0  0  0  0  0  0  0
   -2.0980   -6.4170    9.1260 H   0  0  0  0  0  0  0  0  0  0  0  0
   -3.1700  -11.5250    2.6850 H   0  0  0  0  0  0  0  0  0  0  0  0
   -0.7250   -8.6760    3.0270 H   0  0  0  0  0  0  0  0  0  0  0  0
    0.2670   -9.6610    3.7660 H   0  0  0  0  0  0  0  0  0  0  0  0
    0.8040   -9.2340    1.4510 H   0  0  0  0  0  0  0  0  0  0  0  0
    0.7520  -10.7660    1.8400 H   0  0  0  0  0  0  0  0  0  0  0  0
   -3.1110  -10.0270    2.1800 H   0  0  0  0  0  0  0  0  0  0  0  0
   -1.3260  -11.3220    3.8790 H   0  0  0  0  0  0  0  0  0  0  0  0
   -5.4500  -10.8240    9.4990 N   0  0  0  0  0  0  0  0  0  0  0  0
    1.5200   -8.2490    7.4030 N   0  0  0  0  0  2  0  0  0  0  0  0
    2.5290   -9.2380    7.6040 N   0  0  0  0  0  0  0  0  0  0  0  0
   -0.2500  -10.6010   -0.5380 O   0  0  0  0  0  0  0  0  0  0  0  0
   -2.8320  -13.7450   12.1530 O   0  0  0  0  0  0  0  0  0  0  0  0
   -5.4250  -12.9730   11.9190 O   0  0  0  0  0  1  0  0  0  0  0  0
    3.4730  -11.2000    6.7960 O   0  0  0  0  0  1  0  0  0  0  0  0
   -2.7770  -11.5170    0.1180 O   0  0  0  0  0  0  0  0  0  0  0  0
   -3.6910   -9.4970    7.7950 O   0  0  0  0  0  0  0  0  0  0  0  0
   -5.5600  -13.0350    8.8540 O   0  0  0  0  0  1  0  0  0  0  0  0
   -5.4450   -9.0260    6.3470 O   0  0  0  0  0  1  0  0  0  0  0  0
   -1.6430   -6.4620    5.7360 O   0  0  0  0  0  0  0  0  0  0  0  0
    0.0100   -9.8230   13.1980 O   0  0  0  0  0  0  0  0  0  0  0  0
    0.7580  -11.3160   10.7420 O   0  0  0  0  0  0  0  0  0  0  0  0
   -2.7730  -11.4910   11.7240 O   0  0  0  0  0  0  0  0  0  0  0  0
  1 12  1  0
  1 41  1  0
  1 58  1  0
  1123  1  0
  2  3  1  0
  2128  1  0
  2130  1  0
  3  8  1  0
  3 53  1  0
  3120  1  0
  4 31  1  0
  4120  1  0
  4129  1  0
  5  6  1  0
  5 54  1  0
  5 55  1  0
  5120  1  0
  6  7  1  0
  6 56  1  0
  6 57  1  0
  7  8  1  0
  7 59  1  0
  7 60  1  0
  8 61  1  0
  8 62  1  0
  9 10  1  0
  9 39  1  0
  9 46  1  0
  9 63  1  0
 10 11  1  0
 10 64  1  0
 10131  1  0
 11 13  1  0
 11 66  1  0
 11 67  1  0
 12 34  1  0
 12 69  1  0
 12127  1  0
 13 14  1  0
 13121  1  0
 14 15  1  0
 14 33  1  0
 14 68  1  0
 15 16  1  0
 15 70  1  0
 16 17  1  0
 16 32  1  0
 17 18  1  0
 17 71  1  0
 17 72  1  0
 18 19  1  0
 18 20  1  0
 18 73  1  0
 19 74  1  0
 19 75  1  0
 19 76  1  0
 20 21  1  0
 20 77  1  0
 20 78  1  0
 21 24  1  0
 21 79  1  0
 21132  1  0
 22 81  1  0
 22 82  1  0
 22 83  1  0
 22132  1  0
 23 80  1  0
 23 91  1  0
 23102  1  0
 23127  1  0
 24 25  1  0
 24 84  1  0
 24134  1  0
 25 27  1  0
 25 85  1  0
 25133  1  0
 26 86  1  0
 26 87  1  0
 26 88  1  0
 26133  1  0
 27 28  1  0
 27 89  1  0
 27 90  1  0
 28 29  1  0
 28 30  1  0
 28 92  1  0
 29 93  1  0
 29 94  1  0
 29 95  1  0
 30 31  1  0
 30124  1  0
 30134  1  0
 31125  1  0
 32 97  1  0
 32 98  1  0
 32 99  1  0
 33 35  1  0
 33100  1  0
 33101  1  0
 34 42  1  0
 34113  1  0
 34118  1  0
 35 36  1  0
 35103  1  0
 36104  1  0
 36105  1  0
 37 38  1  0
 37122  1  0
 37126  1  0
 38107  1  0
 38108  1  0
 38109  1  0
 39110  1  0
 39111  1  0
 39112  1  0
 40 41  1  0
 40 42  1  0
 40114  1  0
 40115  1  0
 41116  1  0
 41117  1  0
 42 43  1  0
 42119  1  0
 43 44  1  0
 43 48  1  0
 44 45  1  0
 44 46  1  0
 45 49  1  0
 45 50  1  0
 45 51  1  0
 46 52  1  0
 46128  1  0
 47123  1  0
 65131  1  0
 96124  1  0
106122  1  0
121122  1  0
M  END
$$$$
