7bia_A_GSH_402
     RDKit          3D

 20 19  0  0  0  0  0  0  0  0999 V2000
   15.2910   -3.4870   24.2790 C   0  0  0  0  0  3  0  0  0  0  0  0
    8.9790   -5.0840   28.4350 C   0  0  0  0  0  3  0  0  0  0  0  0
    6.4760   -3.1450   29.7090 C   0  0  0  0  0  3  0  0  0  0  0  0
   14.1530   -2.4760   24.1930 C   0  0  0  0  0  3  0  0  0  0  0  0
    9.5600   -5.6370   27.1350 C   0  0  0  0  0  3  0  0  0  0  0  0
    6.9950   -4.5620   29.7270 C   0  0  0  0  0  2  0  0  0  0  0  0
   12.7940   -3.1790   24.2700 C   0  0  0  0  0  2  0  0  0  0  0  0
    9.7480   -7.1460   27.2610 C   0  0  0  0  0  2  0  0  0  0  0  0
   11.1310   -4.3830   25.7360 C   0  0  0  0  0  3  0  0  0  0  0  0
   12.5270   -3.8160   25.6370 C   0  0  0  0  0  2  0  0  0  0  0  0
   14.2180   -1.6370   22.9690 N   0  0  0  0  0  1  0  0  0  0  0  0
   10.8340   -4.9850   26.8900 N   0  0  0  0  0  2  0  0  0  0  0  0
    7.6510   -4.9620   28.4990 N   0  0  0  0  0  2  0  0  0  0  0  0
   15.8210   -3.7600   23.1140 O   0  0  0  0  0  1  0  0  0  0  0  0
   15.6620   -3.9920   25.3370 O   0  0  0  0  0  1  0  0  0  0  0  0
    9.7230   -4.7820   29.3630 O   0  0  0  0  0  1  0  0  0  0  0  0
    6.7890   -2.4980   28.6170 O   0  0  0  0  0  1  0  0  0  0  0  0
    5.8370   -2.6520   30.6190 O   0  0  0  0  0  1  0  0  0  0  0  0
   10.3300   -4.2930   24.8090 O   0  0  0  0  0  1  0  0  0  0  0  0
   11.0600   -7.8160   26.2040 S   0  0  0  0  0  1  0  0  0  0  0  0
  1  4  1  0
  1 14  1  0
  1 15  1  0
  2  5  1  0
  2 13  1  0
  2 16  1  0
  3  6  1  0
  3 17  1  0
  3 18  1  0
  4  7  1  0
  4 11  1  0
  5  8  1  0
  5 12  1  0
  6 13  1  0
  7 10  1  0
  8 20  1  0
  9 10  1  0
  9 12  1  0
  9 19  1  0
M  END
$$$$
