7bia_A_TVQ_403
     RDKit          3D

  9  8  0  0  0  0  0  0  0  0999 V2000
    4.7850   -5.7440   21.6690 C   0  0  0  0  0  1  0  0  0  0  0  0
    6.7690   -7.0160   23.0010 C   0  0  0  0  0  2  0  0  0  0  0  0
    7.3480   -7.5560   24.2990 C   0  0  0  0  0  2  0  0  0  0  0  0
    8.5560   -8.4210   24.0260 C   0  0  0  0  0  2  0  0  0  0  0  0
   10.0300   -6.7110   22.8750 C   0  0  0  0  0  2  0  0  0  0  0  0
    9.6150   -7.6450   23.4390 N   0  0  0  0  0  2  0  0  0  0  0  0
    4.4840   -6.4470   24.2150 O   0  0  0  0  0  1  0  0  0  0  0  0
    5.4980   -5.7790   23.3240 S   0  0  0  0  0  3  0  0  0  0  0  0
   10.5010   -5.3800   22.0830 S   0  0  0  0  0  1  0  0  0  0  0  0
  1  8  1  0
  2  3  1  0
  2  8  1  0
  3  4  1  0
  4  6  1  0
  5  6  1  0
  5  9  1  0
  7  8  1  0
M  END
$$$$
