9cw7_A_H4B_502
     RDKit          3D

 17 18  0  0  0  0  0  0  0  0999 V2000
   62.3590   20.8410 -173.4690 C   0  0  0  0  0  3  0  0  0  0  0  0
   61.1290   20.2300 -172.8070 C   0  0  0  0  0  1  0  0  0  0  0  0
   66.2790   23.4570 -179.0960 C   0  0  0  0  0  3  0  0  0  0  0  0
   64.0090   22.8530 -179.0090 C   0  0  0  0  0  3  0  0  0  0  0  0
   64.2150   22.3250 -177.7410 C   0  0  0  0  0  3  0  0  0  0  0  0
   63.3110   21.7780 -175.6000 C   0  0  0  0  0  3  0  0  0  0  0  0
   64.6610   21.2140 -175.1630 C   0  0  0  0  0  2  0  0  0  0  0  0
   65.4760   22.3730 -177.1780 C   0  0  0  0  0  3  0  0  0  0  0  0
   62.1460   21.0230 -174.9660 C   0  0  0  0  0  3  0  0  0  0  0  0
   66.4880   22.9400 -177.8610 N   0  0  0  0  0  2  0  0  0  0  0  0
   67.3290   24.0150 -179.7480 N   0  0  0  0  0  1  0  0  0  0  0  0
   65.0490   23.4160 -179.6670 N   0  0  0  0  0  2  0  0  0  0  0  0
   63.2100   21.7570 -177.0470 N   0  0  0  0  0  2  0  0  0  0  0  0
   65.7070   21.8700 -175.9380 N   0  0  0  0  0  2  0  0  0  0  0  0
   62.6710   22.0990 -172.8560 O   0  0  0  0  0  1  0  0  0  0  0  0
   62.8690   22.8090 -179.5320 O   0  0  0  0  0  1  0  0  0  0  0  0
   62.0280   19.7270 -175.5570 O   0  0  0  0  0  1  0  0  0  0  0  0
  1  2  1  0
  1  9  1  0
  1 15  1  0
  3 10  1  0
  3 11  1  0
  3 12  1  0
  4  5  1  0
  4 12  1  0
  4 16  1  0
  5  8  1  0
  5 13  1  0
  6  7  1  0
  6  9  1  0
  6 13  1  0
  7 14  1  0
  8 10  1  0
  8 14  1  0
  9 17  1  0
M  END
$$$$
