9cwk_B_H4B_502
     RDKit          3D

 17 18  0  0  0  0  0  0  0  0999 V2000
  -45.8530  -26.5510 -169.0770 C   0  0  0  0  0  3  0  0  0  0  0  0
  -46.7430  -27.7910 -169.1220 C   0  0  0  0  0  1  0  0  0  0  0  0
  -44.2660  -19.5220 -167.7280 C   0  0  0  0  0  3  0  0  0  0  0  0
  -46.2610  -20.7290 -167.3240 C   0  0  0  0  0  3  0  0  0  0  0  0
  -45.7240  -21.8250 -167.9680 C   0  0  0  0  0  3  0  0  0  0  0  0
  -45.7240  -24.1830 -168.4300 C   0  0  0  0  0  3  0  0  0  0  0  0
  -44.6150  -23.9830 -169.4620 C   0  0  0  0  0  2  0  0  0  0  0  0
  -44.4490  -21.7290 -168.5040 C   0  0  0  0  0  3  0  0  0  0  0  0
  -46.6830  -25.3130 -168.8110 C   0  0  0  0  0  3  0  0  0  0  0  0
  -43.7470  -20.5830 -168.3750 N   0  0  0  0  0  2  0  0  0  0  0  0
  -43.5280  -18.3780 -167.6360 N   0  0  0  0  0  1  0  0  0  0  0  0
  -45.5190  -19.6000 -167.2060 N   0  0  0  0  0  2  0  0  0  0  0  0
  -46.4300  -22.9630 -168.1040 N   0  0  0  0  0  2  0  0  0  0  0  0
  -43.8770  -22.7690 -169.1430 N   0  0  0  0  0  2  0  0  0  0  0  0
  -44.9440  -26.6210 -167.9790 O   0  0  0  0  0  1  0  0  0  0  0  0
  -47.4110  -20.7780 -166.8430 O   0  0  0  0  0  1  0  0  0  0  0  0
  -47.5010  -25.0170 -169.9500 O   0  0  0  0  0  1  0  0  0  0  0  0
  1  2  1  0
  1  9  1  0
  1 15  1  0
  3 10  1  0
  3 11  1  0
  3 12  1  0
  4  5  1  0
  4 12  1  0
  4 16  1  0
  5  8  1  0
  5 13  1  0
  6  7  1  0
  6  9  1  0
  6 13  1  0
  7 14  1  0
  8 10  1  0
  8 14  1  0
  9 17  1  0
M  END
$$$$
