9mwn_B_H44_503
     RDKit          3D

 32 35  0  0  0  0  0  0  0  0999 V2000
  -39.2130  -11.0530  -49.5350 C   0  0  0  0  0  2  0  0  0  0  0  0
  -40.4940  -11.5760  -49.3560 C   0  0  0  0  0  2  0  0  0  0  0  0
  -41.1450  -12.0460  -50.4990 C   0  0  0  0  0  2  0  0  0  0  0  0
  -40.3560  -11.8780  -51.6390 C   0  0  0  0  0  3  0  0  0  0  0  0
  -40.5030  -12.2420  -53.0750 C   0  0  0  0  0  3  0  0  0  0  0  0
  -41.4480  -14.3690  -52.5650 C   0  0  0  0  0  3  0  0  0  0  0  0
  -40.4180  -14.8440  -51.7560 C   0  0  0  0  0  2  0  0  0  0  0  0
  -40.5820  -15.9420  -50.9200 C   0  0  0  0  0  2  0  0  0  0  0  0
  -41.7780  -16.6090  -50.9000 C   0  0  0  0  0  2  0  0  0  0  0  0
  -42.8220  -16.1420  -51.6750 C   0  0  0  0  0  3  0  0  0  0  0  0
  -42.6710  -15.0390  -52.5220 C   0  0  0  0  0  2  0  0  0  0  0  0
  -44.0700  -16.9660  -51.5760 C   0  0  0  0  0  2  0  0  0  0  0  0
  -50.9300  -26.9020  -48.7100 C   0  0  0  0  0  2  0  0  0  0  0  0
  -51.6700  -26.7580  -49.8850 C   0  0  0  0  0  2  0  0  0  0  0  0
  -51.2230  -25.7750  -50.7800 C   0  0  0  0  0  2  0  0  0  0  0  0
  -50.0920  -25.1020  -50.3280 C   0  0  0  0  0  3  0  0  0  0  0  0
  -49.2460  -24.0000  -50.8820 C   0  0  0  0  0  3  0  0  0  0  0  0
  -47.2060  -23.3920  -51.8540 C   0  0  0  0  0  3  0  0  0  0  0  0
  -46.1260  -23.5290  -50.9830 C   0  0  0  0  0  2  0  0  0  0  0  0
  -45.0320  -22.6720  -51.0840 C   0  0  0  0  0  2  0  0  0  0  0  0
  -45.0150  -21.6780  -52.0590 C   0  0  0  0  0  3  0  0  0  0  0  0
  -46.0890  -21.5440  -52.9320 C   0  0  0  0  0  2  0  0  0  0  0  0
  -47.1770  -22.4050  -52.8340 C   0  0  0  0  0  2  0  0  0  0  0  0
  -43.8390  -20.7330  -52.1740 C   0  0  0  0  0  2  0  0  0  0  0  0
  -44.1130  -19.5070  -51.3010 C   0  0  0  0  0  2  0  0  0  0  0  0
  -39.8420  -11.5580  -54.0170 N   0  0  0  0  0  1  0  0  0  0  0  0
  -41.2620  -13.2810  -53.3890 N   0  0  0  0  0  2  0  0  0  0  0  0
  -43.5380  -18.2970  -51.8550 N   0  0  0  0  0  2  0  0  0  0  0  0
  -49.4870  -22.8160  -50.5300 N   0  0  0  0  0  1  0  0  0  0  0  0
  -48.2720  -24.2280  -51.7680 N   0  0  0  0  0  2  0  0  0  0  0  0
  -38.8510  -11.1760  -51.2290 S   0  0  0  0  0  0  0  0  0  0  0  0
  -49.6430  -25.7430  -48.7850 S   0  0  0  0  0  0  0  0  0  0  0  0
  1  2  1  0
  1 31  1  0
  2  3  1  0
  3  4  1  0
  4  5  1  0
  4 31  1  0
  5 26  1  0
  5 27  1  0
  6  7  1  0
  6 11  1  0
  6 27  1  0
  7  8  1  0
  8  9  1  0
  9 10  1  0
 10 11  1  0
 10 12  1  0
 12 28  1  0
 13 14  1  0
 13 32  1  0
 14 15  1  0
 15 16  1  0
 16 17  1  0
 16 32  1  0
 17 29  1  0
 17 30  1  0
 18 19  1  0
 18 23  1  0
 18 30  1  0
 19 20  1  0
 20 21  1  0
 21 22  1  0
 21 24  1  0
 22 23  1  0
 24 25  1  0
 25 28  1  0
M  END
$$$$
