9mwn_C_H4B_502
     RDKit          3D

 17 18  0  0  0  0  0  0  0  0999 V2000
    1.7660   15.9620  -97.7140 C   0  0  0  0  0  3  0  0  0  0  0  0
    2.9110   15.1730  -98.3570 C   0  0  0  0  0  1  0  0  0  0  0  0
   -2.2920   18.5150  -92.1310 C   0  0  0  0  0  3  0  0  0  0  0  0
   -0.0110   17.9180  -92.2050 C   0  0  0  0  0  3  0  0  0  0  0  0
   -0.2060   17.3730  -93.4640 C   0  0  0  0  0  3  0  0  0  0  0  0
    0.7540   16.8370  -95.5790 C   0  0  0  0  0  3  0  0  0  0  0  0
   -0.5910   16.2780  -96.0500 C   0  0  0  0  0  2  0  0  0  0  0  0
   -1.4660   17.4170  -94.0390 C   0  0  0  0  0  3  0  0  0  0  0  0
    1.9570   16.1210  -96.2160 C   0  0  0  0  0  3  0  0  0  0  0  0
   -2.4920   17.9870  -93.3660 N   0  0  0  0  0  2  0  0  0  0  0  0
   -3.3340   19.0830  -91.4850 N   0  0  0  0  0  1  0  0  0  0  0  0
   -1.0660   18.4800  -91.5580 N   0  0  0  0  0  2  0  0  0  0  0  0
    0.8180   16.8010  -94.1340 N   0  0  0  0  0  2  0  0  0  0  0  0
   -1.6700   16.8920  -95.2750 N   0  0  0  0  0  2  0  0  0  0  0  0
    1.6490   17.2670  -98.2900 O   0  0  0  0  0  1  0  0  0  0  0  0
    1.1310   17.8750  -91.6840 O   0  0  0  0  0  1  0  0  0  0  0  0
    2.1570   14.8210  -95.6610 O   0  0  0  0  0  1  0  0  0  0  0  0
  1  2  1  0
  1  9  1  0
  1 15  1  0
  3 10  1  0
  3 11  1  0
  3 12  1  0
  4  5  1  0
  4 12  1  0
  4 16  1  0
  5  8  1  0
  5 13  1  0
  6  7  1  0
  6  9  1  0
  6 13  1  0
  7 14  1  0
  8 10  1  0
  8 14  1  0
  9 17  1  0
M  END
$$$$
