9mwp_A_H4B_502
     RDKit          3D

 17 18  0  0  0  0  0  0  0  0999 V2000
   15.5850  229.4150   20.9960 C   0  0  0  0  0  3  0  0  0  0  0  0
   14.3600  228.7790   20.3410 C   0  0  0  0  0  1  0  0  0  0  0  0
   19.1390  235.2130   23.7430 C   0  0  0  0  0  3  0  0  0  0  0  0
   16.9190  234.9970   23.0130 C   0  0  0  0  0  3  0  0  0  0  0  0
   17.2050  233.7320   22.5200 C   0  0  0  0  0  3  0  0  0  0  0  0
   16.4400  231.5530   21.9050 C   0  0  0  0  0  3  0  0  0  0  0  0
   17.8460  231.1840   21.4090 C   0  0  0  0  0  2  0  0  0  0  0  0
   18.4880  233.2340   22.6450 C   0  0  0  0  0  3  0  0  0  0  0  0
   15.3280  230.9010   21.0950 C   0  0  0  0  0  3  0  0  0  0  0  0
   19.4300  233.9900   23.2520 N   0  0  0  0  0  2  0  0  0  0  0  0
   20.0970  235.9640   24.3600 N   0  0  0  0  0  1  0  0  0  0  0  0
   17.8890  235.6980   23.6220 N   0  0  0  0  0  2  0  0  0  0  0  0
   16.2570  232.9840   21.9220 N   0  0  0  0  0  2  0  0  0  0  0  0
   18.8030  231.9960   22.1680 N   0  0  0  0  0  2  0  0  0  0  0  0
   15.8310  228.8980   22.3150 O   0  0  0  0  0  1  0  0  0  0  0  0
   15.7750  235.5000   22.9210 O   0  0  0  0  0  1  0  0  0  0  0  0
   15.2650  231.4300   19.7630 O   0  0  0  0  0  1  0  0  0  0  0  0
  1  2  1  0
  1  9  1  0
  1 15  1  0
  3 10  1  0
  3 11  1  0
  3 12  1  0
  4  5  1  0
  4 12  1  0
  4 16  1  0
  5  8  1  0
  5 13  1  0
  6  7  1  0
  6  9  1  0
  6 13  1  0
  7 14  1  0
  8 10  1  0
  8 14  1  0
  9 17  1  0
M  END
$$$$
