9mwr_A_H4B_502
     RDKit          3D

 17 18  0  0  0  0  0  0  0  0999 V2000
  -26.8130  -27.9500  -64.6150 C   0  0  0  0  0  3  0  0  0  0  0  0
  -25.5590  -27.3220  -64.0260 C   0  0  0  0  0  1  0  0  0  0  0  0
  -30.9610  -30.4750  -70.0590 C   0  0  0  0  0  3  0  0  0  0  0  0
  -28.6520  -30.0320  -69.9760 C   0  0  0  0  0  3  0  0  0  0  0  0
  -28.8190  -29.4860  -68.7160 C   0  0  0  0  0  3  0  0  0  0  0  0
  -27.8560  -28.9240  -66.6200 C   0  0  0  0  0  3  0  0  0  0  0  0
  -29.1650  -28.2810  -66.1920 C   0  0  0  0  0  2  0  0  0  0  0  0
  -30.0800  -29.4370  -68.1440 C   0  0  0  0  0  3  0  0  0  0  0  0
  -26.6440  -28.1750  -66.0990 C   0  0  0  0  0  3  0  0  0  0  0  0
  -31.1330  -29.9360  -68.8200 N   0  0  0  0  0  2  0  0  0  0  0  0
  -32.0230  -30.9740  -70.7520 N   0  0  0  0  0  1  0  0  0  0  0  0
  -29.7330  -30.5150  -70.6140 N   0  0  0  0  0  2  0  0  0  0  0  0
  -27.7650  -28.9960  -68.0570 N   0  0  0  0  0  2  0  0  0  0  0  0
  -30.2600  -28.9210  -66.9090 N   0  0  0  0  0  2  0  0  0  0  0  0
  -27.0560  -29.2210  -64.0040 O   0  0  0  0  0  1  0  0  0  0  0  0
  -27.5190  -30.0680  -70.5160 O   0  0  0  0  0  1  0  0  0  0  0  0
  -26.5090  -26.9240  -66.7840 O   0  0  0  0  0  1  0  0  0  0  0  0
  1  2  1  0
  1  9  1  0
  1 15  1  0
  3 10  1  0
  3 11  1  0
  3 12  1  0
  4  5  1  0
  4 12  1  0
  4 16  1  0
  5  8  1  0
  5 13  1  0
  6  7  1  0
  6  9  1  0
  6 13  1  0
  7 14  1  0
  8 10  1  0
  8 14  1  0
  9 17  1  0
M  END
$$$$
