9mwt_D_H4B_502
     RDKit          3D

 17 18  0  0  0  0  0  0  0  0999 V2000
  -11.3310   16.6780 -213.6400 C   0  0  0  0  0  3  0  0  0  0  0  0
  -12.3110   17.8490 -213.5960 C   0  0  0  0  0  1  0  0  0  0  0  0
   -9.2390    9.6780 -214.6650 C   0  0  0  0  0  3  0  0  0  0  0  0
  -11.2800   10.7350 -215.1290 C   0  0  0  0  0  3  0  0  0  0  0  0
  -10.8400   11.8820 -214.4770 C   0  0  0  0  0  3  0  0  0  0  0  0
  -11.0000   14.2500 -214.1670 C   0  0  0  0  0  3  0  0  0  0  0  0
   -9.9590   14.1810 -213.0480 C   0  0  0  0  0  2  0  0  0  0  0  0
   -9.5770   11.9010 -213.9110 C   0  0  0  0  0  3  0  0  0  0  0  0
  -12.0330   15.3860 -214.0150 C   0  0  0  0  0  3  0  0  0  0  0  0
   -8.8020   10.7950 -214.0190 N   0  0  0  0  0  2  0  0  0  0  0  0
   -8.4380    8.5800 -214.7580 N   0  0  0  0  0  1  0  0  0  0  0  0
  -10.4810    9.6540 -215.2050 N   0  0  0  0  0  2  0  0  0  0  0  0
  -11.6350   12.9640 -214.3780 N   0  0  0  0  0  2  0  0  0  0  0  0
   -9.1110   13.0170 -213.2730 N   0  0  0  0  0  2  0  0  0  0  0  0
  -10.3000   16.9280 -214.6030 O   0  0  0  0  0  1  0  0  0  0  0  0
  -12.4200   10.6760 -215.6180 O   0  0  0  0  0  1  0  0  0  0  0  0
  -13.0830   15.1080 -213.0750 O   0  0  0  0  0  1  0  0  0  0  0  0
  1  2  1  0
  1  9  1  0
  1 15  1  0
  3 10  1  0
  3 11  1  0
  3 12  1  0
  4  5  1  0
  4 12  1  0
  4 16  1  0
  5  8  1  0
  5 13  1  0
  6  7  1  0
  6  9  1  0
  6 13  1  0
  7 14  1  0
  8 10  1  0
  8 14  1  0
  9 17  1  0
M  END
$$$$
