9mwu_B_H4B_502
     RDKit          3D

 17 18  0  0  0  0  0  0  0  0999 V2000
   30.4820  223.9490   22.2620 C   0  0  0  0  0  3  0  0  0  0  0  0
   31.4030  224.1170   23.4750 C   0  0  0  0  0  1  0  0  0  0  0  0
   28.9330  222.6210   15.2190 C   0  0  0  0  0  3  0  0  0  0  0  0
   30.9140  222.2430   16.4390 C   0  0  0  0  0  3  0  0  0  0  0  0
   30.3530  222.8890   17.5120 C   0  0  0  0  0  3  0  0  0  0  0  0
   30.3420  223.3240   19.8710 C   0  0  0  0  0  3  0  0  0  0  0  0
   29.2100  224.3300   19.6770 C   0  0  0  0  0  2  0  0  0  0  0  0
   29.0730  223.4200   17.3990 C   0  0  0  0  0  3  0  0  0  0  0  0
   31.3020  223.6860   21.0180 C   0  0  0  0  0  3  0  0  0  0  0  0
   28.3930  223.2930   16.2530 N   0  0  0  0  0  2  0  0  0  0  0  0
   28.2240  222.4820   14.0700 N   0  0  0  0  0  1  0  0  0  0  0  0
   30.1840  222.1180   15.3180 N   0  0  0  0  0  2  0  0  0  0  0  0
   31.0540  223.0310   18.6540 N   0  0  0  0  0  2  0  0  0  0  0  0
   28.4910  224.0710   18.4270 N   0  0  0  0  0  2  0  0  0  0  0  0
   29.6320  222.8080   22.4180 O   0  0  0  0  0  1  0  0  0  0  0  0
   32.0700  221.7500   16.5020 O   0  0  0  0  0  1  0  0  0  0  0  0
   32.1000  224.8460   20.7540 O   0  0  0  0  0  1  0  0  0  0  0  0
  1  2  1  0
  1  9  1  0
  1 15  1  0
  3 10  1  0
  3 11  1  0
  3 12  1  0
  4  5  1  0
  4 12  1  0
  4 16  1  0
  5  8  1  0
  5 13  1  0
  6  7  1  0
  6  9  1  0
  6 13  1  0
  7 14  1  0
  8 10  1  0
  8 14  1  0
  9 17  1  0
M  END
$$$$
