9mww_A_H4B_502
     RDKit          3D

 17 18  0  0  0  0  0  0  0  0999 V2000
  -27.1570  -27.7780  -65.3160 C   0  0  0  0  0  3  0  0  0  0  0  0
  -25.9300  -27.1530  -64.6600 C   0  0  0  0  0  1  0  0  0  0  0  0
  -31.2540  -30.4310  -70.7880 C   0  0  0  0  0  3  0  0  0  0  0  0
  -28.9790  -29.9050  -70.7060 C   0  0  0  0  0  3  0  0  0  0  0  0
  -29.1630  -29.3460  -69.4550 C   0  0  0  0  0  3  0  0  0  0  0  0
  -28.2030  -28.6870  -67.3560 C   0  0  0  0  0  3  0  0  0  0  0  0
  -29.5550  -28.1510  -66.8890 C   0  0  0  0  0  2  0  0  0  0  0  0
  -30.4210  -29.3170  -68.8940 C   0  0  0  0  0  3  0  0  0  0  0  0
  -27.0240  -27.8820  -66.8260 C   0  0  0  0  0  3  0  0  0  0  0  0
  -31.4530  -29.8590  -69.5710 N   0  0  0  0  0  2  0  0  0  0  0  0
  -32.3030  -30.9660  -71.4560 N   0  0  0  0  0  1  0  0  0  0  0  0
  -30.0280  -30.4520  -71.3510 N   0  0  0  0  0  2  0  0  0  0  0  0
  -28.1270  -28.8070  -68.7910 N   0  0  0  0  0  2  0  0  0  0  0  0
  -30.6250  -28.7760  -67.6680 N   0  0  0  0  0  2  0  0  0  0  0  0
  -27.3470  -29.1000  -64.8140 O   0  0  0  0  0  1  0  0  0  0  0  0
  -27.8460  -29.9290  -71.2300 O   0  0  0  0  0  1  0  0  0  0  0  0
  -27.0130  -26.5700  -67.3840 O   0  0  0  0  0  1  0  0  0  0  0  0
  1  2  1  0
  1  9  1  0
  1 15  1  0
  3 10  1  0
  3 11  1  0
  3 12  1  0
  4  5  1  0
  4 12  1  0
  4 16  1  0
  5  8  1  0
  5 13  1  0
  6  7  1  0
  6  9  1  0
  6 13  1  0
  7 14  1  0
  8 10  1  0
  8 14  1  0
  9 17  1  0
M  END
$$$$
