9mz3_B_H4B_502
     RDKit          3D

 17 18  0  0  0  0  0  0  0  0999 V2000
  -41.5070  -27.9350  -58.6280 C   0  0  0  0  0  3  0  0  0  0  0  0
  -42.4350  -29.1410  -58.7800 C   0  0  0  0  0  1  0  0  0  0  0  0
  -39.4840  -21.0020  -57.7230 C   0  0  0  0  0  3  0  0  0  0  0  0
  -41.5820  -21.9800  -57.3120 C   0  0  0  0  0  3  0  0  0  0  0  0
  -41.1440  -23.1600  -57.9080 C   0  0  0  0  0  3  0  0  0  0  0  0
  -41.2780  -25.5300  -58.0630 C   0  0  0  0  0  3  0  0  0  0  0  0
  -40.1680  -25.5520  -59.1110 C   0  0  0  0  0  2  0  0  0  0  0  0
  -39.8510  -23.2250  -58.4040 C   0  0  0  0  0  3  0  0  0  0  0  0
  -42.2670  -26.6730  -58.2730 C   0  0  0  0  0  3  0  0  0  0  0  0
  -39.0450  -22.1450  -58.2950 N   0  0  0  0  0  2  0  0  0  0  0  0
  -38.6610  -19.9370  -57.6340 N   0  0  0  0  0  1  0  0  0  0  0  0
  -40.7420  -20.9290  -57.2400 N   0  0  0  0  0  2  0  0  0  0  0  0
  -41.9420  -24.2410  -58.0040 N   0  0  0  0  0  2  0  0  0  0  0  0
  -39.3700  -24.3470  -58.9710 N   0  0  0  0  0  2  0  0  0  0  0  0
  -40.5340  -28.1640  -57.6120 O   0  0  0  0  0  1  0  0  0  0  0  0
  -42.7420  -21.8620  -56.8460 O   0  0  0  0  0  1  0  0  0  0  0  0
  -43.1650  -26.3380  -59.3290 O   0  0  0  0  0  1  0  0  0  0  0  0
  1  2  1  0
  1  9  1  0
  1 15  1  0
  3 10  1  0
  3 11  1  0
  3 12  1  0
  4  5  1  0
  4 12  1  0
  4 16  1  0
  5  8  1  0
  5 13  1  0
  6  7  1  0
  6  9  1  0
  6 13  1  0
  7 14  1  0
  8 10  1  0
  8 14  1  0
  9 17  1  0
M  END
$$$$
