9mz3_A_H4B_502
     RDKit          3D

 17 18  0  0  0  0  0  0  0  0999 V2000
  -27.2110  -27.4250  -64.8050 C   0  0  0  0  0  3  0  0  0  0  0  0
  -26.0450  -26.7190  -64.1270 C   0  0  0  0  0  1  0  0  0  0  0  0
  -31.3060  -30.0780  -70.2620 C   0  0  0  0  0  3  0  0  0  0  0  0
  -29.0160  -29.6150  -70.2060 C   0  0  0  0  0  3  0  0  0  0  0  0
  -29.1580  -29.0680  -68.9420 C   0  0  0  0  0  3  0  0  0  0  0  0
  -28.1650  -28.3630  -66.8710 C   0  0  0  0  0  3  0  0  0  0  0  0
  -29.5130  -27.7930  -66.4450 C   0  0  0  0  0  2  0  0  0  0  0  0
  -30.4100  -29.0170  -68.3600 C   0  0  0  0  0  3  0  0  0  0  0  0
  -27.0130  -27.5290  -66.3110 C   0  0  0  0  0  3  0  0  0  0  0  0
  -31.4670  -29.5170  -69.0290 N   0  0  0  0  0  2  0  0  0  0  0  0
  -32.3730  -30.5870  -70.9200 N   0  0  0  0  0  1  0  0  0  0  0  0
  -30.0930  -30.1210  -70.8340 N   0  0  0  0  0  2  0  0  0  0  0  0
  -28.0860  -28.5660  -68.3070 N   0  0  0  0  0  2  0  0  0  0  0  0
  -30.5850  -28.4940  -67.1350 N   0  0  0  0  0  2  0  0  0  0  0  0
  -27.3800  -28.7440  -64.2800 O   0  0  0  0  0  1  0  0  0  0  0  0
  -27.8860  -29.6520  -70.7410 O   0  0  0  0  0  1  0  0  0  0  0  0
  -26.9770  -26.1980  -66.8340 O   0  0  0  0  0  1  0  0  0  0  0  0
  1  2  1  0
  1  9  1  0
  1 15  1  0
  3 10  1  0
  3 11  1  0
  3 12  1  0
  4  5  1  0
  4 12  1  0
  4 16  1  0
  5  8  1  0
  5 13  1  0
  6  7  1  0
  6  9  1  0
  6 13  1  0
  7 14  1  0
  8 10  1  0
  8 14  1  0
  9 17  1  0
M  END
$$$$
