11ro_A_A01_401
     RDKit          3D

 68 70  0  0  0  0  0  0  0  0999 V2000
   20.9270   13.2150   13.6660 C   0  0  0  0  0  0  0  0  0  0  0  0
   21.1690   13.3660   15.1450 C   0  0  0  0  0  3  0  0  0  0  0  0
   18.8600   13.3020    9.8430 C   0  0  0  0  0  0  0  0  0  0  0  0
   18.4000   14.7500    9.6820 C   0  0  0  0  0  2  0  0  0  0  0  0
   17.8790   12.3580    9.1500 C   0  0  0  0  0  0  0  0  0  0  0  0
   18.2120   10.8710    9.0510 C   0  0  0  0  0  0  0  0  0  0  0  0
   19.1870   10.2600    8.0500 C   0  0  0  0  0  0  0  0  0  0  0  0
   18.5190   10.7110    6.7470 C   0  0  0  0  0  0  0  0  0  0  0  0
   20.6700    8.2840   13.4250 C   0  0  0  0  0  0  0  0  0  0  0  0
   16.8740   10.4570    8.4380 C   0  0  0  0  0  3  0  0  0  0  0  0
   20.7820    7.6110   11.0380 C   0  0  0  0  0  3  0  0  0  0  0  0
   20.4460    6.4810   10.0750 C   0  0  0  0  0  0  0  0  0  0  0  0
   20.4220   12.6470   16.0710 C   0  0  0  0  0  3  0  0  0  0  0  0
   20.6550   12.7910   17.4280 C   0  0  0  0  0  3  0  0  0  0  0  0
   21.6370   13.6630   17.8790 C   0  0  0  0  0  3  0  0  0  0  0  0
   19.9450    9.6060   13.2200 C   0  0  0  0  0  3  0  0  0  0  0  0
   22.3850   14.3870   16.9650 C   0  0  0  0  0  3  0  0  0  0  0  0
   22.1490   14.2390   15.6050 C   0  0  0  0  0  3  0  0  0  0  0  0
   22.2500    6.6930   16.0630 C   0  0  0  0  0  3  0  0  0  0  0  0
   23.1170    5.6600   16.3790 C   0  0  0  0  0  3  0  0  0  0  0  0
   22.9900    4.4290   15.7510 C   0  0  0  0  0  3  0  0  0  0  0  0
   21.9930    4.2380   14.8080 C   0  0  0  0  0  3  0  0  0  0  0  0
   21.1270    5.2750   14.4960 C   0  0  0  0  0  3  0  0  0  0  0  0
   20.3020    7.6410   14.7780 C   0  0  0  0  0  0  0  0  0  0  0  0
   21.2430    6.5130   15.1190 C   0  0  0  0  0  3  0  0  0  0  0  0
   20.0680   12.0070   13.2260 C   0  0  0  0  0  0  0  0  0  0  0  0
   19.9230   12.2090   11.7250 C   0  0  0  0  0  3  0  0  0  0  0  0
   21.5550    5.8230    9.6310 F   0  0  0  0  0  0  0  0  0  0  0  0
   19.6490    5.5720   10.7000 F   0  0  0  0  0  0  0  0  0  0  0  0
   19.7720    6.9280    8.9980 F   0  0  0  0  0  0  0  0  0  0  0  0
   20.0440    6.4790   12.5260 H   0  0  0  0  0  0  0  0  0  0  0  0
   21.7270    8.5260   13.4150 H   0  0  0  0  0  0  0  0  0  0  0  0
   19.2830    7.2840   14.7300 H   0  0  0  0  0  0  0  0  0  0  0  0
   20.3280    8.4020   15.5450 H   0  0  0  0  0  0  0  0  0  0  0  0
   21.6350   10.6870   13.6310 H   0  0  0  0  0  0  0  0  0  0  0  0
   19.1550   11.9520   13.7980 H   0  0  0  0  0  0  0  0  0  0  0  0
   21.8790   13.1370   13.1550 H   0  0  0  0  0  0  0  0  0  0  0  0
   20.4410   14.1090   13.2920 H   0  0  0  0  0  0  0  0  0  0  0  0
   18.3600   13.5130   11.8690 H   0  0  0  0  0  0  0  0  0  0  0  0
   19.8360   13.1700    9.4000 H   0  0  0  0  0  0  0  0  0  0  0  0
   16.9280   12.4440    9.6610 H   0  0  0  0  0  0  0  0  0  0  0  0
   17.7310   12.7250    8.1420 H   0  0  0  0  0  0  0  0  0  0  0  0
   18.5830   10.4560    9.9850 H   0  0  0  0  0  0  0  0  0  0  0  0
   20.1910   10.6610    8.1550 H   0  0  0  0  0  0  0  0  0  0  0  0
   19.2380    9.1780    8.1310 H   0  0  0  0  0  0  0  0  0  0  0  0
   18.8400   10.1240    5.8960 H   0  0  0  0  0  0  0  0  0  0  0  0
   18.6970   11.7570    6.5350 H   0  0  0  0  0  0  0  0  0  0  0  0
   16.3920   10.2760    6.4460 H   0  0  0  0  0  0  0  0  0  0  0  0
   18.5720   16.4590    8.7260 H   0  0  0  0  0  0  0  0  0  0  0  0
   19.6580   11.9720   15.7340 H   0  0  0  0  0  0  0  0  0  0  0  0
   20.0730   12.2270   18.1310 H   0  0  0  0  0  0  0  0  0  0  0  0
   21.8150   13.7740   18.9310 H   0  0  0  0  0  0  0  0  0  0  0  0
   23.1460   15.0630   17.3050 H   0  0  0  0  0  0  0  0  0  0  0  0
   22.7300   14.8040   14.9000 H   0  0  0  0  0  0  0  0  0  0  0  0
   22.3570    7.6440   16.5530 H   0  0  0  0  0  0  0  0  0  0  0  0
   23.8870    5.8130   17.1100 H   0  0  0  0  0  0  0  0  0  0  0  0
   23.6610    3.6280   15.9950 H   0  0  0  0  0  0  0  0  0  0  0  0
   21.8890    3.2900   14.3170 H   0  0  0  0  0  0  0  0  0  0  0  0
   20.3570    5.1190   13.7640 H   0  0  0  0  0  0  0  0  0  0  0  0
   20.4580    7.3560   12.3120 N   0  0  0  0  0  0  0  0  0  0  0  0
   18.9920   13.0430   11.2620 N   0  0  0  0  0  0  0  0  0  0  0  0
   17.1160   10.4480    7.1020 N   0  0  0  0  0  0  0  0  0  0  0  0
   18.8910   15.5110    8.8050 N   0  0  0  0  0  2  0  0  0  0  0  0
   20.6720   10.7180   13.3900 N   0  0  0  0  0  0  0  0  0  0  0  0
   20.7160   11.6300   10.9730 O   0  0  0  0  0  1  0  0  0  0  0  0
   15.7700   10.3090    8.9650 O   0  0  0  0  0  1  0  0  0  0  0  0
   21.2910    8.6290   10.6040 O   0  0  0  0  0  1  0  0  0  0  0  0
   18.7550    9.6280   12.9190 O   0  0  0  0  0  1  0  0  0  0  0  0
  1  2  1  0
  1 26  1  0
  1 37  1  0
  1 38  1  0
  2 13  1  0
  2 18  1  0
  3  4  1  0
  3  5  1  0
  3 40  1  0
  3 61  1  0
  4 63  1  0
  5  6  1  0
  5 41  1  0
  5 42  1  0
  6  7  1  0
  6 10  1  0
  6 43  1  0
  7  8  1  0
  7 44  1  0
  7 45  1  0
  8 46  1  0
  8 47  1  0
  8 62  1  0
  9 16  1  0
  9 24  1  0
  9 32  1  0
  9 60  1  0
 10 62  1  0
 10 66  1  0
 11 12  1  0
 11 60  1  0
 11 67  1  0
 12 28  1  0
 12 29  1  0
 12 30  1  0
 13 14  1  0
 13 50  1  0
 14 15  1  0
 14 51  1  0
 15 17  1  0
 15 52  1  0
 16 64  1  0
 16 68  1  0
 17 18  1  0
 17 53  1  0
 18 54  1  0
 19 20  1  0
 19 25  1  0
 19 55  1  0
 20 21  1  0
 20 56  1  0
 21 22  1  0
 21 57  1  0
 22 23  1  0
 22 58  1  0
 23 25  1  0
 23 59  1  0
 24 25  1  0
 24 33  1  0
 24 34  1  0
 26 27  1  0
 26 36  1  0
 26 64  1  0
 27 61  1  0
 27 65  1  0
 31 60  1  0
 35 64  1  0
 39 61  1  0
 48 62  1  0
 49 63  1  0
M  END
$$$$
