23lw_B_7ON_401
     RDKit          3D

 45 49  0  0  0  0  0  0  0  0999 V2000
    9.1580   27.2810  -19.7270 C   0  0  0  0  0  3  0  0  0  0  0  0
   11.7800   27.4890  -23.7880 C   0  0  0  0  0  3  0  0  0  0  0  0
   13.6930   28.8860  -24.3300 C   0  0  0  0  0  2  0  0  0  0  0  0
   13.7210   27.6780  -25.2550 C   0  0  0  0  0  3  0  0  0  0  0  0
   12.7540   26.6520  -24.6120 C   0  0  0  0  0  3  0  0  0  0  0  0
   13.1420   27.9750  -26.6480 C   0  0  0  0  0  2  0  0  0  0  0  0
   12.1370   26.8870  -26.9320 C   0  0  0  0  0  2  0  0  0  0  0  0
   12.0930   25.9020  -25.7660 C   0  0  0  0  0  2  0  0  0  0  0  0
   11.7900   29.7250  -22.8920 C   0  0  0  0  0  3  0  0  0  0  0  0
   12.4930   31.0440  -22.6870 C   0  0  0  0  0  3  0  0  0  0  0  0
   12.2590   31.5520  -21.2660 C   0  0  0  0  0  3  0  0  0  0  0  0
   10.2160   27.1990  -18.6290 C   0  0  0  0  0  2  0  0  0  0  0  0
   12.8320   30.5950  -20.2180 C   0  0  0  0  0  2  0  0  0  0  0  0
   12.6870   31.1420  -18.8020 C   0  0  0  0  0  2  0  0  0  0  0  0
   13.2570   32.5460  -18.6670 C   0  0  0  0  0  2  0  0  0  0  0  0
   12.6700   33.5000  -19.6960 C   0  0  0  0  0  2  0  0  0  0  0  0
   12.8360   32.9620  -21.1150 C   0  0  0  0  0  2  0  0  0  0  0  0
   12.0990   21.8260  -20.3260 C   0  0  0  0  0  3  0  0  0  0  0  0
   12.6530   20.4320  -20.5720 C   0  0  0  0  0  2  0  0  0  0  0  0
   13.9140   20.5180  -19.7350 C   0  0  0  0  0  2  0  0  0  0  0  0
   13.5580   21.4380  -18.5510 C   0  0  0  0  0  2  0  0  0  0  0  0
   12.1330   21.8920  -18.8190 C   0  0  0  0  0  2  0  0  0  0  0  0
    9.9010   28.3890  -17.7540 C   0  0  0  0  0  2  0  0  0  0  0  0
   12.7130   32.4620  -24.6480 C   0  0  0  0  0  3  0  0  0  0  0  0
   12.0260   33.5260  -25.4970 C   0  0  0  0  0  0  0  0  0  0  0  0
    8.0000   27.9480  -19.0100 C   0  0  0  0  0  3  0  0  0  0  0  0
    8.8290   25.9460  -20.4050 C   0  0  0  0  0  2  0  0  0  0  0  0
   10.0580   25.4340  -21.1570 C   0  0  0  0  0  3  0  0  0  0  0  0
    9.9850   23.9980  -21.6310 C   0  0  0  0  0  3  0  0  0  0  0  0
    9.9940   22.9970  -20.6140 C   0  0  0  0  0  3  0  0  0  0  0  0
   11.5400   26.8580  -22.4360 C   0  0  0  0  0  3  0  0  0  0  0  0
   10.7050   33.3330  -25.5440 F   0  0  0  0  0  0  0  0  0  0  0  0
   12.4480   33.5070  -26.7400 F   0  0  0  0  0  0  0  0  0  0  0  0
   12.2870   34.7380  -25.0290 F   0  0  0  0  0  0  0  0  0  0  0  0
    8.4500   28.4960  -17.9070 N   0  0  0  0  0  2  0  0  0  0  0  0
   10.8160   22.0620  -20.9420 N   0  0  0  0  0  2  0  0  0  0  0  0
   10.3330   26.2960  -22.2870 N   0  0  0  0  0  2  0  0  0  0  0  0
   12.3980   28.7890  -23.6300 N   0  0  0  0  0  0  0  0  0  0  0  0
   11.9660   31.9500  -23.6760 N   0  0  0  0  0  2  0  0  0  0  0  0
    6.8640   28.0650  -19.4370 O   0  0  0  0  0  1  0  0  0  0  0  0
    9.2700   22.9170  -19.6230 O   0  0  0  0  0  1  0  0  0  0  0  0
   12.3920   26.9080  -21.5470 O   0  0  0  0  0  1  0  0  0  0  0  0
   10.6910   29.5320  -22.3240 O   0  0  0  0  0  1  0  0  0  0  0  0
   13.8580   32.1450  -24.8900 O   0  0  0  0  0  1  0  0  0  0  0  0
   10.5280   23.7260  -22.7300 O   0  0  0  0  0  1  0  0  0  0  0  0
  1 12  1  0
  1 26  1  0
  1 27  1  0
  2  5  1  0
  2 31  1  0
  2 38  1  0
  3  4  1  0
  3 38  1  0
  4  5  1  0
  4  6  1  0
  5  8  1  0
  6  7  1  0
  7  8  1  0
  9 10  1  0
  9 38  1  0
  9 43  1  0
 10 11  1  0
 10 39  1  0
 11 13  1  0
 11 17  1  0
 12 23  1  0
 13 14  1  0
 14 15  1  0
 15 16  1  0
 16 17  1  0
 18 19  1  0
 18 22  1  0
 18 36  1  0
 19 20  1  0
 20 21  1  0
 21 22  1  0
 23 35  1  0
 24 25  1  0
 24 39  1  0
 24 44  1  0
 25 32  1  0
 25 33  1  0
 25 34  1  0
 26 35  1  0
 26 40  1  0
 27 28  1  0
 28 29  1  0
 28 37  1  0
 29 30  1  0
 29 45  1  0
 30 36  1  0
 30 41  1  0
 31 37  1  0
 31 42  1  0
M  END
$$$$
