23ly_A_7ON_401
     RDKit          3D

 45 49  0  0  0  0  0  0  0  0999 V2000
  -29.4900   24.8090   -4.1210 C   0  0  0  0  0  3  0  0  0  0  0  0
  -31.8480   23.5730   -0.0870 C   0  0  0  0  0  3  0  0  0  0  0  0
  -33.7870   24.5450    1.0070 C   0  0  0  0  0  2  0  0  0  0  0  0
  -33.5510   23.1460    1.5740 C   0  0  0  0  0  3  0  0  0  0  0  0
  -32.7510   22.4630    0.4590 C   0  0  0  0  0  3  0  0  0  0  0  0
  -32.5910   23.0780    2.7740 C   0  0  0  0  0  2  0  0  0  0  0  0
  -31.7660   21.8060    2.5930 C   0  0  0  0  0  2  0  0  0  0  0  0
  -31.9390   21.3560    1.1410 C   0  0  0  0  0  2  0  0  0  0  0  0
  -32.0070   25.9710   -0.0900 C   0  0  0  0  0  3  0  0  0  0  0  0
  -32.8110   27.2350    0.1870 C   0  0  0  0  0  3  0  0  0  0  0  0
  -32.8760   28.0730   -1.0770 C   0  0  0  0  0  3  0  0  0  0  0  0
  -30.6280   25.0530   -5.0990 C   0  0  0  0  0  2  0  0  0  0  0  0
  -33.7640   29.2950   -0.8930 C   0  0  0  0  0  2  0  0  0  0  0  0
  -33.8100   30.1550   -2.1600 C   0  0  0  0  0  2  0  0  0  0  0  0
  -34.2370   29.3460   -3.3750 C   0  0  0  0  0  2  0  0  0  0  0  0
  -33.3700   28.1140   -3.5560 C   0  0  0  0  0  2  0  0  0  0  0  0
  -33.3310   27.2670   -2.2870 C   0  0  0  0  0  2  0  0  0  0  0  0
  -31.7110   18.9610   -5.9970 C   0  0  0  0  0  3  0  0  0  0  0  0
  -32.6200   17.7740   -5.6600 C   0  0  0  0  0  2  0  0  0  0  0  0
  -33.9990   18.3880   -5.5870 C   0  0  0  0  0  2  0  0  0  0  0  0
  -34.0070   19.6020   -6.5170 C   0  0  0  0  0  2  0  0  0  0  0  0
  -32.5510   19.8450   -6.9090 C   0  0  0  0  0  2  0  0  0  0  0  0
  -30.2690   26.3730   -5.7760 C   0  0  0  0  0  2  0  0  0  0  0  0
  -32.9230   28.1660    2.4680 C   0  0  0  0  0  3  0  0  0  0  0  0
  -32.1980   28.9510    3.5640 C   0  0  0  0  0  0  0  0  0  0  0  0
  -28.3620   25.6640   -4.6650 C   0  0  0  0  0  3  0  0  0  0  0  0
  -29.0830   23.3470   -3.9600 C   0  0  0  0  0  2  0  0  0  0  0  0
  -30.2250   22.5560   -3.3450 C   0  0  0  0  0  3  0  0  0  0  0  0
  -30.0560   21.0540   -3.4090 C   0  0  0  0  0  3  0  0  0  0  0  0
  -30.1610   20.4390   -4.7400 C   0  0  0  0  0  3  0  0  0  0  0  0
  -31.6810   23.4210   -1.5820 C   0  0  0  0  0  3  0  0  0  0  0  0
  -32.1950   28.3440    4.7270 F   0  0  0  0  0  0  0  0  0  0  0  0
  -30.9280   29.1530    3.3070 F   0  0  0  0  0  0  0  0  0  0  0  0
  -32.7570   30.1150    3.7890 F   0  0  0  0  0  0  0  0  0  0  0  0
  -28.8230   26.4460   -5.6070 N   0  0  0  0  0  2  0  0  0  0  0  0
  -31.2800   19.6820   -4.8020 N   0  0  0  0  0  2  0  0  0  0  0  0
  -30.4930   22.9380   -1.9700 N   0  0  0  0  0  2  0  0  0  0  0  0
  -32.5490   24.7950    0.2580 N   0  0  0  0  0  0  0  0  0  0  0  0
  -32.2640   27.9700    1.3140 N   0  0  0  0  0  2  0  0  0  0  0  0
  -27.1950   25.5910   -4.2940 O   0  0  0  0  0  1  0  0  0  0  0  0
  -29.4650   20.6430   -5.7270 O   0  0  0  0  0  1  0  0  0  0  0  0
  -32.6030   23.6900   -2.3580 O   0  0  0  0  0  1  0  0  0  0  0  0
  -30.8990   26.0310   -0.6280 O   0  0  0  0  0  1  0  0  0  0  0  0
  -34.0350   27.7460    2.7220 O   0  0  0  0  0  1  0  0  0  0  0  0
  -30.5780   20.4170   -2.4630 O   0  0  0  0  0  1  0  0  0  0  0  0
  1 12  1  0
  1 26  1  0
  1 27  1  0
  2  5  1  0
  2 31  1  0
  2 38  1  0
  3  4  1  0
  3 38  1  0
  4  5  1  0
  4  6  1  0
  5  8  1  0
  6  7  1  0
  7  8  1  0
  9 10  1  0
  9 38  1  0
  9 43  1  0
 10 11  1  0
 10 39  1  0
 11 13  1  0
 11 17  1  0
 12 23  1  0
 13 14  1  0
 14 15  1  0
 15 16  1  0
 16 17  1  0
 18 19  1  0
 18 22  1  0
 18 36  1  0
 19 20  1  0
 20 21  1  0
 21 22  1  0
 23 35  1  0
 24 25  1  0
 24 39  1  0
 24 44  1  0
 25 32  1  0
 25 33  1  0
 25 34  1  0
 26 35  1  0
 26 40  1  0
 27 28  1  0
 28 29  1  0
 28 37  1  0
 29 30  1  0
 29 45  1  0
 30 36  1  0
 30 41  1  0
 31 37  1  0
 31 42  1  0
M  END
$$$$
