23ly_B_7ON_401
     RDKit          3D

 45 49  0  0  0  0  0  0  0  0999 V2000
    9.2630   27.3670  -19.2300 C   0  0  0  0  0  3  0  0  0  0  0  0
   11.7540   27.5230  -23.4280 C   0  0  0  0  0  3  0  0  0  0  0  0
   13.6960   28.7940  -24.1580 C   0  0  0  0  0  2  0  0  0  0  0  0
   13.5190   27.5920  -25.0770 C   0  0  0  0  0  3  0  0  0  0  0  0
   12.6560   26.6070  -24.2490 C   0  0  0  0  0  3  0  0  0  0  0  0
   12.6180   27.9010  -26.2920 C   0  0  0  0  0  2  0  0  0  0  0  0
   11.7300   26.6790  -26.4920 C   0  0  0  0  0  2  0  0  0  0  0  0
   11.9090   25.7710  -25.2950 C   0  0  0  0  0  2  0  0  0  0  0  0
   11.9010   29.7680  -22.6420 C   0  0  0  0  0  3  0  0  0  0  0  0
   12.6610   31.0550  -22.4460 C   0  0  0  0  0  3  0  0  0  0  0  0
   12.7400   31.4640  -20.9850 C   0  0  0  0  0  3  0  0  0  0  0  0
   10.4350   27.4320  -18.2550 C   0  0  0  0  0  2  0  0  0  0  0  0
   13.2740   30.3320  -20.1250 C   0  0  0  0  0  2  0  0  0  0  0  0
   13.3520   30.7540  -18.6610 C   0  0  0  0  0  2  0  0  0  0  0  0
   14.2020   32.0040  -18.4790 C   0  0  0  0  0  2  0  0  0  0  0  0
   13.7070   33.1440  -19.3610 C   0  0  0  0  0  2  0  0  0  0  0  0
   13.5940   32.7210  -20.8240 C   0  0  0  0  0  2  0  0  0  0  0  0
   11.6170   21.2650  -19.4270 C   0  0  0  0  0  3  0  0  0  0  0  0
   12.3800   21.8390  -18.2450 C   0  0  0  0  0  2  0  0  0  0  0  0
   13.8420   21.8100  -18.6460 C   0  0  0  0  0  2  0  0  0  0  0  0
   13.9930   20.8180  -19.7750 C   0  0  0  0  0  2  0  0  0  0  0  0
   12.6060   20.2650  -20.0790 C   0  0  0  0  0  2  0  0  0  0  0  0
   10.0130   28.3910  -17.1600 C   0  0  0  0  0  2  0  0  0  0  0  0
   12.7310   32.7510  -24.1780 C   0  0  0  0  0  3  0  0  0  0  0  0
   11.9940   33.9230  -24.8020 C   0  0  0  0  0  0  0  0  0  0  0  0
    8.1190   28.0110  -18.4690 C   0  0  0  0  0  3  0  0  0  0  0  0
    8.9610   26.0000  -19.8290 C   0  0  0  0  0  2  0  0  0  0  0  0
   10.0990   25.4950  -20.7090 C   0  0  0  0  0  3  0  0  0  0  0  0
   10.0000   24.0440  -21.2060 C   0  0  0  0  0  3  0  0  0  0  0  0
   10.0690   23.0390  -20.1760 C   0  0  0  0  0  3  0  0  0  0  0  0
   11.5430   26.9040  -22.0600 C   0  0  0  0  0  3  0  0  0  0  0  0
   12.0100   34.9970  -24.0480 F   0  0  0  0  0  0  0  0  0  0  0  0
   12.4490   34.2510  -25.9780 F   0  0  0  0  0  0  0  0  0  0  0  0
   10.7490   33.6530  -24.9810 F   0  0  0  0  0  0  0  0  0  0  0  0
    8.5650   28.4560  -17.2940 N   0  0  0  0  0  2  0  0  0  0  0  0
   11.1970   22.3160  -20.3500 N   0  0  0  0  0  2  0  0  0  0  0  0
   10.3470   26.3230  -21.8710 N   0  0  0  0  0  2  0  0  0  0  0  0
   12.4610   28.7960  -23.3720 N   0  0  0  0  0  0  0  0  0  0  0  0
   12.0530   32.0810  -23.2500 N   0  0  0  0  0  2  0  0  0  0  0  0
    6.9580   28.1100  -18.9030 O   0  0  0  0  0  1  0  0  0  0  0  0
    9.3680   22.9150  -19.1890 O   0  0  0  0  0  1  0  0  0  0  0  0
   12.4350   26.9120  -21.2280 O   0  0  0  0  0  1  0  0  0  0  0  0
   10.7680   29.6410  -22.1610 O   0  0  0  0  0  1  0  0  0  0  0  0
   13.8550   32.5040  -24.5620 O   0  0  0  0  0  1  0  0  0  0  0  0
   10.5940   23.7580  -22.2860 O   0  0  0  0  0  1  0  0  0  0  0  0
  1 12  1  0
  1 26  1  0
  1 27  1  0
  2  5  1  0
  2 31  1  0
  2 38  1  0
  3  4  1  0
  3 38  1  0
  4  5  1  0
  4  6  1  0
  5  8  1  0
  6  7  1  0
  7  8  1  0
  9 10  1  0
  9 38  1  0
  9 43  1  0
 10 11  1  0
 10 39  1  0
 11 13  1  0
 11 17  1  0
 12 23  1  0
 13 14  1  0
 14 15  1  0
 15 16  1  0
 16 17  1  0
 18 19  1  0
 18 22  1  0
 18 36  1  0
 19 20  1  0
 20 21  1  0
 21 22  1  0
 23 35  1  0
 24 25  1  0
 24 39  1  0
 24 44  1  0
 25 32  1  0
 25 33  1  0
 25 34  1  0
 26 35  1  0
 26 40  1  0
 27 28  1  0
 28 29  1  0
 28 37  1  0
 29 30  1  0
 29 45  1  0
 30 36  1  0
 30 41  1  0
 31 37  1  0
 31 42  1  0
M  END
$$$$
