23lz_D_7ON_402
     RDKit          3D

 45 49  0  0  0  0  0  0  0  0999 V2000
    6.4140   11.2330   94.2960 C   0  0  0  0  0  3  0  0  0  0  0  0
    9.1920    8.2960   96.8840 C   0  0  0  0  0  3  0  0  0  0  0  0
    9.0310    7.7690   99.2660 C   0  0  0  0  0  2  0  0  0  0  0  0
    9.8810    6.7120   98.5760 C   0  0  0  0  0  3  0  0  0  0  0  0
    9.5270    6.8170   97.0930 C   0  0  0  0  0  3  0  0  0  0  0  0
   11.3760    7.0450   98.6110 C   0  0  0  0  0  2  0  0  0  0  0  0
   11.9310    6.4590   97.3650 C   0  0  0  0  0  2  0  0  0  0  0  0
   10.7730    6.2820   96.3730 C   0  0  0  0  0  2  0  0  0  0  0  0
    8.5660   10.0730   98.4170 C   0  0  0  0  0  3  0  0  0  0  0  0
    8.2860   10.5270   99.8420 C   0  0  0  0  0  3  0  0  0  0  0  0
    7.1550   11.5500   99.8890 C   0  0  0  0  0  3  0  0  0  0  0  0
    5.0650   10.9880   94.9670 C   0  0  0  0  0  2  0  0  0  0  0  0
    6.9500   12.0770  101.3150 C   0  0  0  0  0  2  0  0  0  0  0  0
    5.9130   13.1930  101.3620 C   0  0  0  0  0  2  0  0  0  0  0  0
    4.6160   12.7710  100.6810 C   0  0  0  0  0  2  0  0  0  0  0  0
    4.8830   12.2590   99.2760 C   0  0  0  0  0  2  0  0  0  0  0  0
    5.8250   11.0650   99.3240 C   0  0  0  0  0  2  0  0  0  0  0  0
    4.8470    5.4180   91.7270 C   0  0  0  0  0  3  0  0  0  0  0  0
    3.6750    5.8890   92.5850 C   0  0  0  0  0  2  0  0  0  0  0  0
    3.4960    4.7650   93.5900 C   0  0  0  0  0  2  0  0  0  0  0  0
    3.7200    3.5160   92.7810 C   0  0  0  0  0  2  0  0  0  0  0  0
    4.8900    3.8650   91.8910 C   0  0  0  0  0  2  0  0  0  0  0  0
    4.4630   12.3820   95.1650 C   0  0  0  0  0  2  0  0  0  0  0  0
   10.0280   10.7590  101.5810 C   0  0  0  0  0  3  0  0  0  0  0  0
   11.1760   11.6070  102.1270 C   0  0  0  0  0  0  0  0  0  0  0  0
    6.3310   12.6540   93.7970 C   0  0  0  0  0  3  0  0  0  0  0  0
    6.8750   10.2790   93.1800 C   0  0  0  0  0  2  0  0  0  0  0  0
    7.0710    8.9090   93.8140 C   0  0  0  0  0  3  0  0  0  0  0  0
    7.3890    7.7400   92.9120 C   0  0  0  0  0  3  0  0  0  0  0  0
    6.3910    7.3610   91.9380 C   0  0  0  0  0  3  0  0  0  0  0  0
    7.9590    8.4500   96.0080 C   0  0  0  0  0  3  0  0  0  0  0  0
   12.2790   10.8880  102.1830 F   0  0  0  0  0  0  0  0  0  0  0  0
   10.8900   12.0280  103.3450 F   0  0  0  0  0  0  0  0  0  0  0  0
   11.4640   12.6890  101.4100 F   0  0  0  0  0  0  0  0  0  0  0  0
    5.2330   13.2040   94.2310 N   0  0  0  0  0  2  0  0  0  0  0  0
    6.1050    6.0490   92.1040 N   0  0  0  0  0  2  0  0  0  0  0  0
    8.1670    8.8970   94.7610 N   0  0  0  0  0  2  0  0  0  0  0  0
    8.9090    8.7940   98.2250 N   0  0  0  0  0  0  0  0  0  0  0  0
    9.4610   11.1530  100.4360 N   0  0  0  0  0  2  0  0  0  0  0  0
    7.1710   13.1930   93.0670 O   0  0  0  0  0  1  0  0  0  0  0  0
    5.7790    8.1290   91.2050 O   0  0  0  0  0  1  0  0  0  0  0  0
    6.8440    8.1700   96.4410 O   0  0  0  0  0  1  0  0  0  0  0  0
    8.5010   10.8570   97.4580 O   0  0  0  0  0  1  0  0  0  0  0  0
    9.7330    9.7630  102.2110 O   0  0  0  0  0  1  0  0  0  0  0  0
    8.1820    6.8620   93.4160 O   0  0  0  0  0  1  0  0  0  0  0  0
  1 12  1  0
  1 26  1  0
  1 27  1  0
  2  5  1  0
  2 31  1  0
  2 38  1  0
  3  4  1  0
  3 38  1  0
  4  5  1  0
  4  6  1  0
  5  8  1  0
  6  7  1  0
  7  8  1  0
  9 10  1  0
  9 38  1  0
  9 43  1  0
 10 11  1  0
 10 39  1  0
 11 13  1  0
 11 17  1  0
 12 23  1  0
 13 14  1  0
 14 15  1  0
 15 16  1  0
 16 17  1  0
 18 19  1  0
 18 22  1  0
 18 36  1  0
 19 20  1  0
 20 21  1  0
 21 22  1  0
 23 35  1  0
 24 25  1  0
 24 39  1  0
 24 44  1  0
 25 32  1  0
 25 33  1  0
 25 34  1  0
 26 35  1  0
 26 40  1  0
 27 28  1  0
 28 29  1  0
 28 37  1  0
 29 30  1  0
 29 45  1  0
 30 36  1  0
 30 41  1  0
 31 37  1  0
 31 42  1  0
M  END
$$$$
