23lz_B_7ON_402
     RDKit          3D

 45 49  0  0  0  0  0  0  0  0999 V2000
    7.8330   39.7330   64.5940 C   0  0  0  0  0  3  0  0  0  0  0  0
    5.1650   42.1190   61.3620 C   0  0  0  0  0  3  0  0  0  0  0  0
    4.9410   44.4920   60.7960 C   0  0  0  0  0  2  0  0  0  0  0  0
    4.2410   43.6510   59.7340 C   0  0  0  0  0  3  0  0  0  0  0  0
    4.9220   42.2840   59.8370 C   0  0  0  0  0  3  0  0  0  0  0  0
    2.7810   43.3320   60.0880 C   0  0  0  0  0  2  0  0  0  0  0  0
    2.5430   41.9220   59.5750 C   0  0  0  0  0  2  0  0  0  0  0  0
    3.8920   41.2760   59.3040 C   0  0  0  0  0  2  0  0  0  0  0  0
    5.6410   43.7330   63.1070 C   0  0  0  0  0  3  0  0  0  0  0  0
    5.8680   45.1730   63.5780 C   0  0  0  0  0  3  0  0  0  0  0  0
    6.9820   45.2460   64.6580 C   0  0  0  0  0  3  0  0  0  0  0  0
    9.1360   40.4970   64.3050 C   0  0  0  0  0  2  0  0  0  0  0  0
    7.0370   46.5950   65.3760 C   0  0  0  0  0  2  0  0  0  0  0  0
    8.0440   46.5890   66.5260 C   0  0  0  0  0  2  0  0  0  0  0  0
    9.4290   46.2850   66.0040 C   0  0  0  0  0  2  0  0  0  0  0  0
    9.4600   44.9940   65.1900 C   0  0  0  0  0  2  0  0  0  0  0  0
    8.3750   44.9140   64.1100 C   0  0  0  0  0  2  0  0  0  0  0  0
    9.4310   37.8780   58.7480 C   0  0  0  0  0  3  0  0  0  0  0  0
    9.5270   37.5940   57.2170 C   0  0  0  0  0  2  0  0  0  0  0  0
   10.8820   38.1630   56.8440 C   0  0  0  0  0  2  0  0  0  0  0  0
   11.5680   38.4960   58.1360 C   0  0  0  0  0  2  0  0  0  0  0  0
   10.8530   37.6750   59.1970 C   0  0  0  0  0  2  0  0  0  0  0  0
    9.8580   40.5860   65.6660 C   0  0  0  0  0  2  0  0  0  0  0  0
    3.9400   46.7360   63.5420 C   0  0  0  0  0  3  0  0  0  0  0  0
    2.7080   47.2170   64.3090 C   0  0  0  0  0  0  0  0  0  0  0  0
    7.9280   39.3390   66.0530 C   0  0  0  0  0  3  0  0  0  0  0  0
    7.5370   38.5760   63.6140 C   0  0  0  0  0  2  0  0  0  0  0  0
    7.3920   39.1510   62.1990 C   0  0  0  0  0  3  0  0  0  0  0  0
    7.1540   38.1520   61.0410 C   0  0  0  0  0  3  0  0  0  0  0  0
    8.1350   37.1450   60.6830 C   0  0  0  0  0  3  0  0  0  0  0  0
    6.4500   41.3480   61.6370 C   0  0  0  0  0  3  0  0  0  0  0  0
    1.6680   47.4130   63.4910 F   0  0  0  0  0  0  0  0  0  0  0  0
    2.3240   46.3290   65.2040 F   0  0  0  0  0  0  0  0  0  0  0  0
    2.9670   48.3550   64.9390 F   0  0  0  0  0  0  0  0  0  0  0  0
    8.9270   39.9830   66.6040 N   0  0  0  0  0  2  0  0  0  0  0  0
    8.4780   37.0260   59.4270 N   0  0  0  0  0  2  0  0  0  0  0  0
    6.2950   40.0900   62.0830 N   0  0  0  0  0  2  0  0  0  0  0  0
    5.2560   43.5010   61.8430 N   0  0  0  0  0  0  0  0  0  0  0  0
    4.5870   45.6790   64.0450 N   0  0  0  0  0  2  0  0  0  0  0  0
    7.1450   38.5610   66.6360 O   0  0  0  0  0  1  0  0  0  0  0  0
    8.6930   36.4510   61.5120 O   0  0  0  0  0  1  0  0  0  0  0  0
    7.5470   41.8920   61.4900 O   0  0  0  0  0  1  0  0  0  0  0  0
    5.7960   42.7850   63.9010 O   0  0  0  0  0  1  0  0  0  0  0  0
    4.2670   47.3860   62.5880 O   0  0  0  0  0  1  0  0  0  0  0  0
    6.3920   38.5210   60.1120 O   0  0  0  0  0  1  0  0  0  0  0  0
  1 12  1  0
  1 26  1  0
  1 27  1  0
  2  5  1  0
  2 31  1  0
  2 38  1  0
  3  4  1  0
  3 38  1  0
  4  5  1  0
  4  6  1  0
  5  8  1  0
  6  7  1  0
  7  8  1  0
  9 10  1  0
  9 38  1  0
  9 43  1  0
 10 11  1  0
 10 39  1  0
 11 13  1  0
 11 17  1  0
 12 23  1  0
 13 14  1  0
 14 15  1  0
 15 16  1  0
 16 17  1  0
 18 19  1  0
 18 22  1  0
 18 36  1  0
 19 20  1  0
 20 21  1  0
 21 22  1  0
 23 35  1  0
 24 25  1  0
 24 39  1  0
 24 44  1  0
 25 32  1  0
 25 33  1  0
 25 34  1  0
 26 35  1  0
 26 40  1  0
 27 28  1  0
 28 29  1  0
 28 37  1  0
 29 30  1  0
 29 45  1  0
 30 36  1  0
 30 41  1  0
 31 37  1  0
 31 42  1  0
M  END
$$$$
