23lz_A_7ON_402
     RDKit          3D

 45 49  0  0  0  0  0  0  0  0999 V2000
   26.3210   10.4350   14.2100 C   0  0  0  0  0  3  0  0  0  0  0  0
   23.7070    7.1420   11.8130 C   0  0  0  0  0  3  0  0  0  0  0  0
   23.9230    6.4430    9.5100 C   0  0  0  0  0  2  0  0  0  0  0  0
   23.1030    5.4150   10.2830 C   0  0  0  0  0  3  0  0  0  0  0  0
   23.5170    5.6270   11.7480 C   0  0  0  0  0  3  0  0  0  0  0  0
   21.6010    5.7200   10.3350 C   0  0  0  0  0  2  0  0  0  0  0  0
   21.1330    5.0650   11.5880 C   0  0  0  0  0  2  0  0  0  0  0  0
   22.3330    5.0890   12.5720 C   0  0  0  0  0  2  0  0  0  0  0  0
   24.1540    8.8730   10.1520 C   0  0  0  0  0  3  0  0  0  0  0  0
   24.5710    9.2390    8.7450 C   0  0  0  0  0  3  0  0  0  0  0  0
   25.8630   10.0690    8.6740 C   0  0  0  0  0  3  0  0  0  0  0  0
   27.7330   10.1700   13.7210 C   0  0  0  0  0  2  0  0  0  0  0  0
   27.0200    9.3800    9.3560 C   0  0  0  0  0  2  0  0  0  0  0  0
   28.1040   10.4260    9.5550 C   0  0  0  0  0  2  0  0  0  0  0  0
   28.6830   10.7940    8.2140 C   0  0  0  0  0  2  0  0  0  0  0  0
   27.6100   11.2480    7.2100 C   0  0  0  0  0  2  0  0  0  0  0  0
   26.2950   10.4490    7.2530 C   0  0  0  0  0  2  0  0  0  0  0  0
   28.3230    4.9590   16.9790 C   0  0  0  0  0  3  0  0  0  0  0  0
   29.4610    5.2200   16.0720 C   0  0  0  0  0  2  0  0  0  0  0  0
   30.0320    3.8510   15.7240 C   0  0  0  0  0  2  0  0  0  0  0  0
   28.9550    2.8670   15.9360 C   0  0  0  0  0  2  0  0  0  0  0  0
   28.2610    3.4330   17.1220 C   0  0  0  0  0  2  0  0  0  0  0  0
   28.2360   11.5510   13.2960 C   0  0  0  0  0  2  0  0  0  0  0  0
   22.8710    9.4520    7.0190 C   0  0  0  0  0  3  0  0  0  0  0  0
   21.6580   10.2170    6.5030 C   0  0  0  0  0  0  0  0  0  0  0  0
   26.3280   11.9000   14.5750 C   0  0  0  0  0  3  0  0  0  0  0  0
   25.7850    9.5630   15.3250 C   0  0  0  0  0  2  0  0  0  0  0  0
   25.7450    8.1540   14.7900 C   0  0  0  0  0  3  0  0  0  0  0  0
   25.6190    7.0610   15.7960 C   0  0  0  0  0  3  0  0  0  0  0  0
   26.6930    6.7870   16.6800 C   0  0  0  0  0  3  0  0  0  0  0  0
   24.9290    7.4760   12.6330 C   0  0  0  0  0  3  0  0  0  0  0  0
   21.8550   10.6290    5.2780 F   0  0  0  0  0  0  0  0  0  0  0  0
   21.3480   11.3040    7.1900 F   0  0  0  0  0  0  0  0  0  0  0  0
   20.5930    9.4450    6.5140 F   0  0  0  0  0  0  0  0  0  0  0  0
   27.4470   12.4340   14.1550 N   0  0  0  0  0  2  0  0  0  0  0  0
   27.0790    5.5160   16.4780 N   0  0  0  0  0  2  0  0  0  0  0  0
   24.6680    7.9820   13.8340 N   0  0  0  0  0  2  0  0  0  0  0  0
   23.9230    7.5780   10.4310 N   0  0  0  0  0  0  0  0  0  0  0  0
   23.4810    9.9520    8.1010 N   0  0  0  0  0  2  0  0  0  0  0  0
   25.4020   12.4980   15.1920 O   0  0  0  0  0  1  0  0  0  0  0  0
   27.2360    7.6080   17.4190 O   0  0  0  0  0  1  0  0  0  0  0  0
   26.0570    7.2860   12.1790 O   0  0  0  0  0  1  0  0  0  0  0  0
   24.0800    9.7500   11.0270 O   0  0  0  0  0  1  0  0  0  0  0  0
   23.1460    8.3870    6.5040 O   0  0  0  0  0  1  0  0  0  0  0  0
   24.8970    6.1120   15.5250 O   0  0  0  0  0  1  0  0  0  0  0  0
  1 12  1  0
  1 26  1  0
  1 27  1  0
  2  5  1  0
  2 31  1  0
  2 38  1  0
  3  4  1  0
  3 38  1  0
  4  5  1  0
  4  6  1  0
  5  8  1  0
  6  7  1  0
  7  8  1  0
  9 10  1  0
  9 38  1  0
  9 43  1  0
 10 11  1  0
 10 39  1  0
 11 13  1  0
 11 17  1  0
 12 23  1  0
 13 14  1  0
 14 15  1  0
 15 16  1  0
 16 17  1  0
 18 19  1  0
 18 22  1  0
 18 36  1  0
 19 20  1  0
 20 21  1  0
 21 22  1  0
 23 35  1  0
 24 25  1  0
 24 39  1  0
 24 44  1  0
 25 32  1  0
 25 33  1  0
 25 34  1  0
 26 35  1  0
 26 40  1  0
 27 28  1  0
 28 29  1  0
 28 37  1  0
 29 30  1  0
 29 45  1  0
 30 36  1  0
 30 41  1  0
 31 37  1  0
 31 42  1  0
M  END
$$$$
