23ma_A_7ON_401
     RDKit          3D

 45 49  0  0  0  0  0  0  0  0999 V2000
    4.9650   25.0030    3.9350 C   0  0  0  0  0  3  0  0  0  0  0  0
    7.7210   23.9470    0.0780 C   0  0  0  0  0  3  0  0  0  0  0  0
    9.7410   25.0410   -0.7690 C   0  0  0  0  0  2  0  0  0  0  0  0
    9.6220   23.6870   -1.4500 C   0  0  0  0  0  3  0  0  0  0  0  0
    8.6600   22.8950   -0.5330 C   0  0  0  0  0  3  0  0  0  0  0  0
    8.9160   23.7350   -2.8270 C   0  0  0  0  0  2  0  0  0  0  0  0
    8.1200   22.4450   -2.9130 C   0  0  0  0  0  2  0  0  0  0  0  0
    8.0450   21.8480   -1.4740 C   0  0  0  0  0  2  0  0  0  0  0  0
    7.7790   26.3820    0.0430 C   0  0  0  0  0  3  0  0  0  0  0  0
    8.5480   27.6730   -0.1590 C   0  0  0  0  0  3  0  0  0  0  0  0
    8.7450   28.5840    1.0670 C   0  0  0  0  0  3  0  0  0  0  0  0
    6.1690   25.3600    4.8050 C   0  0  0  0  0  2  0  0  0  0  0  0
    8.2430   27.9890    2.3750 C   0  0  0  0  0  2  0  0  0  0  0  0
    8.6980   28.8310    3.5660 C   0  0  0  0  0  2  0  0  0  0  0  0
    8.3650   30.3100    3.4260 C   0  0  0  0  0  2  0  0  0  0  0  0
    8.7460   30.8720    2.0590 C   0  0  0  0  0  2  0  0  0  0  0  0
    8.2000   30.0010    0.9260 C   0  0  0  0  0  2  0  0  0  0  0  0
    7.5940   19.5130    6.2290 C   0  0  0  0  0  3  0  0  0  0  0  0
    8.8340   18.6070    6.1840 C   0  0  0  0  0  2  0  0  0  0  0  0
   10.0430   19.5350    6.2680 C   0  0  0  0  0  2  0  0  0  0  0  0
    9.4670   20.9140    6.2800 C   0  0  0  0  0  2  0  0  0  0  0  0
    8.1190   20.7410    6.9460 C   0  0  0  0  0  2  0  0  0  0  0  0
    5.8860   26.7560    5.2770 C   0  0  0  0  0  2  0  0  0  0  0  0
    8.7990   28.5110   -2.4090 C   0  0  0  0  0  3  0  0  0  0  0  0
    8.2160   29.2970   -3.5870 C   0  0  0  0  0  0  0  0  0  0  0  0
    3.8580   25.8720    4.5090 C   0  0  0  0  0  3  0  0  0  0  0  0
    4.6730   23.4980    3.7860 C   0  0  0  0  0  2  0  0  0  0  0  0
    5.9070   22.7950    3.2260 C   0  0  0  0  0  3  0  0  0  0  0  0
    5.9310   21.2650    3.3350 C   0  0  0  0  0  3  0  0  0  0  0  0
    6.0500   20.6990    4.6630 C   0  0  0  0  0  3  0  0  0  0  0  0
    7.4120   23.7670    1.5720 C   0  0  0  0  0  3  0  0  0  0  0  0
    8.6950   30.5360   -3.6350 F   0  0  0  0  0  0  0  0  0  0  0  0
    6.8910   29.4060   -3.5300 F   0  0  0  0  0  0  0  0  0  0  0  0
    8.5090   28.7080   -4.7330 F   0  0  0  0  0  0  0  0  0  0  0  0
    4.4290   26.8100    5.2770 N   0  0  0  0  0  2  0  0  0  0  0  0
    7.0780   19.8320    4.9040 N   0  0  0  0  0  2  0  0  0  0  0  0
    6.2170   23.2220    1.8680 N   0  0  0  0  0  2  0  0  0  0  0  0
    8.4080   25.2130   -0.1790 N   0  0  0  0  0  0  0  0  0  0  0  0
    8.0350   28.3890   -1.3110 N   0  0  0  0  0  2  0  0  0  0  0  0
    2.6240   25.7540    4.2910 O   0  0  0  0  0  1  0  0  0  0  0  0
    5.2780   21.0330    5.5470 O   0  0  0  0  0  1  0  0  0  0  0  0
    8.2230   24.0850    2.4490 O   0  0  0  0  0  1  0  0  0  0  0  0
    6.6110   26.3970    0.3800 O   0  0  0  0  0  1  0  0  0  0  0  0
    9.9160   28.0270   -2.5250 O   0  0  0  0  0  1  0  0  0  0  0  0
    6.5240   20.6320    2.4400 O   0  0  0  0  0  1  0  0  0  0  0  0
  1 12  1  0
  1 26  1  0
  1 27  1  0
  2  5  1  0
  2 31  1  0
  2 38  1  0
  3  4  1  0
  3 38  1  0
  4  5  1  0
  4  6  1  0
  5  8  1  0
  6  7  1  0
  7  8  1  0
  9 10  1  0
  9 38  1  0
  9 43  1  0
 10 11  1  0
 10 39  1  0
 11 13  1  0
 11 17  1  0
 12 23  1  0
 13 14  1  0
 14 15  1  0
 15 16  1  0
 16 17  1  0
 18 19  1  0
 18 22  1  0
 18 36  1  0
 19 20  1  0
 20 21  1  0
 21 22  1  0
 23 35  1  0
 24 25  1  0
 24 39  1  0
 24 44  1  0
 25 32  1  0
 25 33  1  0
 25 34  1  0
 26 35  1  0
 26 40  1  0
 27 28  1  0
 28 29  1  0
 28 37  1  0
 29 30  1  0
 29 45  1  0
 30 36  1  0
 30 41  1  0
 31 37  1  0
 31 42  1  0
M  END
$$$$
