23mb_A_A02_401
     RDKit          3D

 45 49  0  0  0  0  0  0  0  0999 V2000
   -9.0820  -23.2080   19.0810 C   0  0  0  0  0  3  0  0  0  0  0  0
  -11.6990  -23.3940   23.2870 C   0  0  0  0  0  3  0  0  0  0  0  0
  -13.3510  -21.9170   24.2860 C   0  0  0  0  0  2  0  0  0  0  0  0
  -13.4670  -23.2790   24.9730 C   0  0  0  0  0  3  0  0  0  0  0  0
  -12.7270  -24.2530   24.0460 C   0  0  0  0  0  3  0  0  0  0  0  0
  -12.7430  -23.3770   26.3340 C   0  0  0  0  0  2  0  0  0  0  0  0
  -11.6550  -24.4190   26.1650 C   0  0  0  0  0  2  0  0  0  0  0  0
  -12.1050  -25.2710   25.0040 C   0  0  0  0  0  2  0  0  0  0  0  0
  -11.7950  -21.0890   22.4930 C   0  0  0  0  0  3  0  0  0  0  0  0
  -12.6490  -19.8240   22.3740 C   0  0  0  0  0  3  0  0  0  0  0  0
  -13.2430  -19.5710   20.9760 C   0  0  0  0  0  3  0  0  0  0  0  0
  -10.2990  -23.0830   18.1560 C   0  0  0  0  0  2  0  0  0  0  0  0
  -12.8840  -20.6650   19.9870 C   0  0  0  0  0  2  0  0  0  0  0  0
  -13.5760  -20.4450   18.6440 C   0  0  0  0  0  2  0  0  0  0  0  0
  -13.2640  -19.0780   18.0710 C   0  0  0  0  0  2  0  0  0  0  0  0
  -13.5770  -17.9800   19.0630 C   0  0  0  0  0  2  0  0  0  0  0  0
  -12.8730  -18.2180   20.3960 C   0  0  0  0  0  2  0  0  0  0  0  0
  -11.5650  -29.3450   19.1810 C   0  0  0  0  0  3  0  0  0  0  0  0
  -12.4510  -28.4430   18.3080 C   0  0  0  0  0  2  0  0  0  0  0  0
  -13.7840  -29.1710   18.1400 C   0  0  0  0  0  2  0  0  0  0  0  0
  -13.5910  -30.5390   18.7450 C   0  0  0  0  0  2  0  0  0  0  0  0
  -12.5340  -30.3410   19.8090 C   0  0  0  0  0  2  0  0  0  0  0  0
   -9.8810  -22.1430   17.0430 C   0  0  0  0  0  2  0  0  0  0  0  0
  -12.5580  -18.0640   24.0220 C   0  0  0  0  0  3  0  0  0  0  0  0
  -11.8040  -16.9190   24.7110 C   0  0  0  0  0  0  0  0  0  0  0  0
   -7.9490  -22.6250   18.2630 C   0  0  0  0  0  3  0  0  0  0  0  0
   -8.7780  -24.5970   19.6690 C   0  0  0  0  0  2  0  0  0  0  0  0
  -10.0190  -25.1170   20.4100 C   0  0  0  0  0  3  0  0  0  0  0  0
  -10.0110  -26.5740   20.8140 C   0  0  0  0  0  3  0  0  0  0  0  0
   -9.9840  -27.6160   19.8810 C   0  0  0  0  0  3  0  0  0  0  0  0
  -11.4820  -23.8970   21.8730 C   0  0  0  0  0  3  0  0  0  0  0  0
  -12.1240  -16.8420   25.9930 F   0  0  0  0  0  0  0  0  0  0  0  0
  -12.0990  -15.7390   24.1920 F   0  0  0  0  0  0  0  0  0  0  0  0
  -10.4850  -17.0510   24.6510 F   0  0  0  0  0  0  0  0  0  0  0  0
   -8.4280  -22.2040   17.0960 N   0  0  0  0  0  2  0  0  0  0  0  0
  -10.8360  -28.5890   20.1860 N   0  0  0  0  0  2  0  0  0  0  0  0
  -10.2690  -24.4020   21.6370 N   0  0  0  0  0  2  0  0  0  0  0  0
  -12.2700  -22.0550   23.2970 N   0  0  0  0  0  0  0  0  0  0  0  0
  -11.9870  -18.6740   22.9760 N   0  0  0  0  0  2  0  0  0  0  0  0
   -6.7780  -22.5620   18.6200 O   0  0  0  0  0  1  0  0  0  0  0  0
   -9.2120  -27.6380   18.9280 O   0  0  0  0  0  1  0  0  0  0  0  0
  -12.3910  -23.8600   21.0380 O   0  0  0  0  0  1  0  0  0  0  0  0
  -10.7300  -21.2230   21.8850 O   0  0  0  0  0  1  0  0  0  0  0  0
  -13.6380  -18.3980   24.4740 O   0  0  0  0  0  1  0  0  0  0  0  0
  -10.3510  -26.8490   21.9560 O   0  0  0  0  0  1  0  0  0  0  0  0
  1 12  1  0
  1 26  1  0
  1 27  1  0
  2  5  1  0
  2 31  1  0
  2 38  1  0
  3  4  1  0
  3 38  1  0
  4  5  1  0
  4  6  1  0
  5  8  1  0
  6  7  1  0
  7  8  1  0
  9 10  1  0
  9 38  1  0
  9 43  1  0
 10 11  1  0
 10 39  1  0
 11 13  1  0
 11 17  1  0
 12 23  1  0
 13 14  1  0
 14 15  1  0
 15 16  1  0
 16 17  1  0
 18 19  1  0
 18 22  1  0
 18 36  1  0
 19 20  1  0
 20 21  1  0
 21 22  1  0
 23 35  1  0
 24 25  1  0
 24 39  1  0
 24 44  1  0
 25 32  1  0
 25 33  1  0
 25 34  1  0
 26 35  1  0
 26 40  1  0
 27 28  1  0
 28 29  1  0
 28 37  1  0
 29 30  1  0
 29 45  1  0
 30 36  1  0
 30 41  1  0
 31 37  1  0
 31 42  1  0
M  END
$$$$
