23mb_B_A02_401
     RDKit          3D

 45 49  0  0  0  0  0  0  0  0999 V2000
   29.5220  -25.8680    4.1500 C   0  0  0  0  0  3  0  0  0  0  0  0
   31.8640  -27.1750    0.0680 C   0  0  0  0  0  3  0  0  0  0  0  0
   33.6620  -26.1470   -1.2440 C   0  0  0  0  0  2  0  0  0  0  0  0
   33.5770  -27.6250   -1.6160 C   0  0  0  0  0  3  0  0  0  0  0  0
   32.8110  -28.2760   -0.4470 C   0  0  0  0  0  3  0  0  0  0  0  0
   32.7460  -27.9410   -2.8790 C   0  0  0  0  0  2  0  0  0  0  0  0
   31.8110  -29.0770   -2.4890 C   0  0  0  0  0  2  0  0  0  0  0  0
   32.1980  -29.5250   -1.0850 C   0  0  0  0  0  2  0  0  0  0  0  0
   32.0140  -24.7620    0.0630 C   0  0  0  0  0  3  0  0  0  0  0  0
   32.7760  -23.4870   -0.2290 C   0  0  0  0  0  3  0  0  0  0  0  0
   32.9360  -22.6350    1.0150 C   0  0  0  0  0  3  0  0  0  0  0  0
   30.6030  -25.4540    5.1320 C   0  0  0  0  0  2  0  0  0  0  0  0
   33.8520  -23.3380    2.0070 C   0  0  0  0  0  2  0  0  0  0  0  0
   34.1220  -22.4580    3.2200 C   0  0  0  0  0  2  0  0  0  0  0  0
   34.6650  -21.1000    2.7990 C   0  0  0  0  0  2  0  0  0  0  0  0
   33.7260  -20.3820    1.8480 C   0  0  0  0  0  2  0  0  0  0  0  0
   33.4450  -21.2470    0.6260 C   0  0  0  0  0  2  0  0  0  0  0  0
   32.1520  -31.3250    6.0350 C   0  0  0  0  0  3  0  0  0  0  0  0
   33.1900  -30.2040    5.9720 C   0  0  0  0  0  2  0  0  0  0  0  0
   34.4340  -30.7390    6.6690 C   0  0  0  0  0  2  0  0  0  0  0  0
   34.1680  -32.2000    6.9400 C   0  0  0  0  0  2  0  0  0  0  0  0
   32.9970  -32.5730    6.0460 C   0  0  0  0  0  2  0  0  0  0  0  0
   30.0850  -24.1770    5.7830 C   0  0  0  0  0  2  0  0  0  0  0  0
   32.7530  -22.4190   -2.4150 C   0  0  0  0  0  3  0  0  0  0  0  0
   32.0580  -21.3810   -3.2920 C   0  0  0  0  0  0  0  0  0  0  0  0
   28.3080  -25.0420    4.5470 C   0  0  0  0  0  3  0  0  0  0  0  0
   29.2560  -27.3800    4.0890 C   0  0  0  0  0  2  0  0  0  0  0  0
   30.4360  -28.1150    3.4410 C   0  0  0  0  0  3  0  0  0  0  0  0
   30.3650  -29.6200    3.5050 C   0  0  0  0  0  3  0  0  0  0  0  0
   30.3420  -30.2950    4.7770 C   0  0  0  0  0  3  0  0  0  0  0  0
   31.6730  -27.1980    1.5820 C   0  0  0  0  0  3  0  0  0  0  0  0
   32.5510  -21.3200   -4.5260 F   0  0  0  0  0  0  0  0  0  0  0  0
   30.7730  -21.6400   -3.4170 F   0  0  0  0  0  0  0  0  0  0  0  0
   32.1470  -20.1820   -2.7430 F   0  0  0  0  0  0  0  0  0  0  0  0
   28.6500  -24.2300    5.5410 N   0  0  0  0  0  2  0  0  0  0  0  0
   31.2300  -31.2760    4.9110 N   0  0  0  0  0  2  0  0  0  0  0  0
   30.5750  -27.8120    2.0290 N   0  0  0  0  0  2  0  0  0  0  0  0
   32.5120  -25.9320   -0.3560 N   0  0  0  0  0  0  0  0  0  0  0  0
   32.1380  -22.7010   -1.2660 N   0  0  0  0  0  2  0  0  0  0  0  0
   27.1550  -25.1380    4.0380 O   0  0  0  0  0  1  0  0  0  0  0  0
   29.5510  -30.0070    5.6760 O   0  0  0  0  0  1  0  0  0  0  0  0
   32.4950  -26.6770    2.3350 O   0  0  0  0  0  1  0  0  0  0  0  0
   30.9790  -24.7330    0.7020 O   0  0  0  0  0  1  0  0  0  0  0  0
   33.8070  -22.9050   -2.7760 O   0  0  0  0  0  1  0  0  0  0  0  0
   30.5660  -30.2100    2.4460 O   0  0  0  0  0  1  0  0  0  0  0  0
  1 12  1  0
  1 26  1  0
  1 27  1  0
  2  5  1  0
  2 31  1  0
  2 38  1  0
  3  4  1  0
  3 38  1  0
  4  5  1  0
  4  6  1  0
  5  8  1  0
  6  7  1  0
  7  8  1  0
  9 10  1  0
  9 38  1  0
  9 43  1  0
 10 11  1  0
 10 39  1  0
 11 13  1  0
 11 17  1  0
 12 23  1  0
 13 14  1  0
 14 15  1  0
 15 16  1  0
 16 17  1  0
 18 19  1  0
 18 22  1  0
 18 36  1  0
 19 20  1  0
 20 21  1  0
 21 22  1  0
 23 35  1  0
 24 25  1  0
 24 39  1  0
 24 44  1  0
 25 32  1  0
 25 33  1  0
 25 34  1  0
 26 35  1  0
 26 40  1  0
 27 28  1  0
 28 29  1  0
 28 37  1  0
 29 30  1  0
 29 45  1  0
 30 36  1  0
 30 41  1  0
 31 37  1  0
 31 42  1  0
M  END
$$$$
