23mc_A_7ON_401
     RDKit          3D

 45 49  0  0  0  0  0  0  0  0999 V2000
  -29.0810   24.9730   -3.9950 C   0  0  0  0  0  3  0  0  0  0  0  0
  -31.6340   23.8030   -0.0910 C   0  0  0  0  0  3  0  0  0  0  0  0
  -33.5370   24.9100    0.9280 C   0  0  0  0  0  2  0  0  0  0  0  0
  -33.3940   23.5140    1.5320 C   0  0  0  0  0  3  0  0  0  0  0  0
  -32.6160   22.7470    0.4590 C   0  0  0  0  0  3  0  0  0  0  0  0
  -32.4730   23.4280    2.7640 C   0  0  0  0  0  2  0  0  0  0  0  0
  -31.6900   22.1370    2.6120 C   0  0  0  0  0  2  0  0  0  0  0  0
  -31.9830   21.5730    1.2120 C   0  0  0  0  0  2  0  0  0  0  0  0
  -31.6820   26.2370   -0.1570 C   0  0  0  0  0  3  0  0  0  0  0  0
  -32.3870   27.5500    0.0920 C   0  0  0  0  0  3  0  0  0  0  0  0
  -32.1300   28.5710   -1.0240 C   0  0  0  0  0  3  0  0  0  0  0  0
  -30.1120   25.4070   -5.0390 C   0  0  0  0  0  2  0  0  0  0  0  0
  -32.7490   29.9410   -0.7230 C   0  0  0  0  0  2  0  0  0  0  0  0
  -32.3530   30.9710   -1.7860 C   0  0  0  0  0  2  0  0  0  0  0  0
  -32.6780   30.4840   -3.1970 C   0  0  0  0  0  2  0  0  0  0  0  0
  -32.1320   29.0840   -3.4620 C   0  0  0  0  0  2  0  0  0  0  0  0
  -32.5910   28.0950   -2.3910 C   0  0  0  0  0  2  0  0  0  0  0  0
  -31.6320   19.2790   -6.0340 C   0  0  0  0  0  3  0  0  0  0  0  0
  -32.4170   20.3380   -6.8030 C   0  0  0  0  0  2  0  0  0  0  0  0
  -33.8050   19.7570   -7.0770 C   0  0  0  0  0  2  0  0  0  0  0  0
  -33.9990   18.6800   -6.0620 C   0  0  0  0  0  2  0  0  0  0  0  0
  -32.6150   18.0930   -5.8260 C   0  0  0  0  0  2  0  0  0  0  0  0
  -29.6590   26.7990   -5.4620 C   0  0  0  0  0  2  0  0  0  0  0  0
  -32.7300   28.2850    2.3900 C   0  0  0  0  0  3  0  0  0  0  0  0
  -32.1030   28.9160    3.6330 C   0  0  0  0  0  0  0  0  0  0  0  0
  -27.8840   25.8520   -4.2960 C   0  0  0  0  0  3  0  0  0  0  0  0
  -28.7890   23.4600   -3.9440 C   0  0  0  0  0  2  0  0  0  0  0  0
  -29.9980   22.7280   -3.3250 C   0  0  0  0  0  3  0  0  0  0  0  0
  -29.9910   21.2040   -3.4230 C   0  0  0  0  0  3  0  0  0  0  0  0
  -30.0230   20.6040   -4.7090 C   0  0  0  0  0  3  0  0  0  0  0  0
  -31.4110   23.6350   -1.5830 C   0  0  0  0  0  3  0  0  0  0  0  0
  -32.6830   30.0660    3.9570 F   0  0  0  0  0  0  0  0  0  0  0  0
  -30.8060   29.1610    3.4590 F   0  0  0  0  0  0  0  0  0  0  0  0
  -32.2110   28.1110    4.6790 F   0  0  0  0  0  0  0  0  0  0  0  0
  -28.2360   26.7870   -5.1580 N   0  0  0  0  0  2  0  0  0  0  0  0
  -31.1210   19.8150   -4.7880 N   0  0  0  0  0  2  0  0  0  0  0  0
  -30.2330   23.1220   -1.9470 N   0  0  0  0  0  2  0  0  0  0  0  0
  -32.2720   25.0820    0.2010 N   0  0  0  0  0  0  0  0  0  0  0  0
  -31.9220   28.1150    1.3420 N   0  0  0  0  0  2  0  0  0  0  0  0
  -26.7670   25.7360   -3.8030 O   0  0  0  0  0  1  0  0  0  0  0  0
  -29.2400   20.7500   -5.6460 O   0  0  0  0  0  1  0  0  0  0  0  0
  -32.3010   23.9150   -2.3870 O   0  0  0  0  0  1  0  0  0  0  0  0
  -30.5680   26.2540   -0.6690 O   0  0  0  0  0  1  0  0  0  0  0  0
  -33.8910   27.9450    2.4140 O   0  0  0  0  0  1  0  0  0  0  0  0
  -30.5170   20.5270   -2.4710 O   0  0  0  0  0  1  0  0  0  0  0  0
  1 12  1  0
  1 26  1  0
  1 27  1  0
  2  5  1  0
  2 31  1  0
  2 38  1  0
  3  4  1  0
  3 38  1  0
  4  5  1  0
  4  6  1  0
  5  8  1  0
  6  7  1  0
  7  8  1  0
  9 10  1  0
  9 38  1  0
  9 43  1  0
 10 11  1  0
 10 39  1  0
 11 13  1  0
 11 17  1  0
 12 23  1  0
 13 14  1  0
 14 15  1  0
 15 16  1  0
 16 17  1  0
 18 19  1  0
 18 22  1  0
 18 36  1  0
 19 20  1  0
 20 21  1  0
 21 22  1  0
 23 35  1  0
 24 25  1  0
 24 39  1  0
 24 44  1  0
 25 32  1  0
 25 33  1  0
 25 34  1  0
 26 35  1  0
 26 40  1  0
 27 28  1  0
 28 29  1  0
 28 37  1  0
 29 30  1  0
 29 45  1  0
 30 36  1  0
 30 41  1  0
 31 37  1  0
 31 42  1  0
M  END
$$$$
