23mc_B_7ON_401
     RDKit          3D

 45 49  0  0  0  0  0  0  0  0999 V2000
    8.9730   27.6570  -19.1610 C   0  0  0  0  0  3  0  0  0  0  0  0
   11.5580   27.7640  -23.1800 C   0  0  0  0  0  3  0  0  0  0  0  0
   13.4650   29.1610  -23.7700 C   0  0  0  0  0  2  0  0  0  0  0  0
   13.3870   28.0130  -24.7590 C   0  0  0  0  0  3  0  0  0  0  0  0
   12.5480   26.9450  -24.0290 C   0  0  0  0  0  3  0  0  0  0  0  0
   12.5800   28.3530  -26.0200 C   0  0  0  0  0  2  0  0  0  0  0  0
   11.6570   27.1610  -26.2660 C   0  0  0  0  0  2  0  0  0  0  0  0
   11.9010   26.1290  -25.1550 C   0  0  0  0  0  2  0  0  0  0  0  0
   11.6330   30.0310  -22.2880 C   0  0  0  0  0  3  0  0  0  0  0  0
   12.3560   31.3530  -22.0910 C   0  0  0  0  0  3  0  0  0  0  0  0
   12.1620   31.9000  -20.6750 C   0  0  0  0  0  3  0  0  0  0  0  0
   10.0450   27.7340  -18.0700 C   0  0  0  0  0  2  0  0  0  0  0  0
   12.8130   33.2580  -20.4700 C   0  0  0  0  0  2  0  0  0  0  0  0
   12.3620   33.8630  -19.1390 C   0  0  0  0  0  2  0  0  0  0  0  0
   12.6120   32.9150  -17.9730 C   0  0  0  0  0  2  0  0  0  0  0  0
   12.1000   31.4950  -18.2270 C   0  0  0  0  0  2  0  0  0  0  0  0
   12.6050   30.9510  -19.5620 C   0  0  0  0  0  2  0  0  0  0  0  0
   11.5050   21.6350  -18.9680 C   0  0  0  0  0  3  0  0  0  0  0  0
   12.3180   22.3830  -17.8720 C   0  0  0  0  0  2  0  0  0  0  0  0
   13.7920   22.0490  -18.1320 C   0  0  0  0  0  2  0  0  0  0  0  0
   13.8270   21.2790  -19.4350 C   0  0  0  0  0  2  0  0  0  0  0  0
   12.4770   20.5920  -19.5430 C   0  0  0  0  0  2  0  0  0  0  0  0
    9.5570   28.8130  -17.1080 C   0  0  0  0  0  2  0  0  0  0  0  0
   12.6050   32.8950  -23.9520 C   0  0  0  0  0  3  0  0  0  0  0  0
   11.9170   33.9000  -24.8720 C   0  0  0  0  0  0  0  0  0  0  0  0
    7.7690   28.3240  -18.5290 C   0  0  0  0  0  3  0  0  0  0  0  0
    8.6640   26.2610  -19.7270 C   0  0  0  0  0  2  0  0  0  0  0  0
    9.8820   25.7170  -20.4750 C   0  0  0  0  0  3  0  0  0  0  0  0
    9.8520   24.2410  -20.8890 C   0  0  0  0  0  3  0  0  0  0  0  0
    9.9020   23.2850  -19.8520 C   0  0  0  0  0  3  0  0  0  0  0  0
   11.3470   27.1210  -21.8190 C   0  0  0  0  0  3  0  0  0  0  0  0
   12.1960   35.1470  -24.5320 F   0  0  0  0  0  0  0  0  0  0  0  0
   12.3450   33.7510  -26.1100 F   0  0  0  0  0  0  0  0  0  0  0  0
   10.5920   33.7520  -24.8840 F   0  0  0  0  0  0  0  0  0  0  0  0
    8.1230   28.8800  -17.3870 N   0  0  0  0  0  2  0  0  0  0  0  0
   11.0060   22.5370  -19.9930 N   0  0  0  0  0  2  0  0  0  0  0  0
   10.1770   26.4760  -21.6630 N   0  0  0  0  0  2  0  0  0  0  0  0
   12.1870   29.0750  -23.0450 N   0  0  0  0  0  0  0  0  0  0  0  0
   11.8350   32.3130  -23.0440 N   0  0  0  0  0  2  0  0  0  0  0  0
    6.6470   28.3770  -19.0310 O   0  0  0  0  0  1  0  0  0  0  0  0
    9.1510   23.1600  -18.8960 O   0  0  0  0  0  1  0  0  0  0  0  0
   12.2110   27.2140  -20.9530 O   0  0  0  0  0  1  0  0  0  0  0  0
   10.5570   29.8470  -21.7310 O   0  0  0  0  0  1  0  0  0  0  0  0
   13.7980   32.6890  -24.0780 O   0  0  0  0  0  1  0  0  0  0  0  0
   10.3690   23.9160  -21.9990 O   0  0  0  0  0  1  0  0  0  0  0  0
  1 12  1  0
  1 26  1  0
  1 27  1  0
  2  5  1  0
  2 31  1  0
  2 38  1  0
  3  4  1  0
  3 38  1  0
  4  5  1  0
  4  6  1  0
  5  8  1  0
  6  7  1  0
  7  8  1  0
  9 10  1  0
  9 38  1  0
  9 43  1  0
 10 11  1  0
 10 39  1  0
 11 13  1  0
 11 17  1  0
 12 23  1  0
 13 14  1  0
 14 15  1  0
 15 16  1  0
 16 17  1  0
 18 19  1  0
 18 22  1  0
 18 36  1  0
 19 20  1  0
 20 21  1  0
 21 22  1  0
 23 35  1  0
 24 25  1  0
 24 39  1  0
 24 44  1  0
 25 32  1  0
 25 33  1  0
 25 34  1  0
 26 35  1  0
 26 40  1  0
 27 28  1  0
 28 29  1  0
 28 37  1  0
 29 30  1  0
 29 45  1  0
 30 36  1  0
 30 41  1  0
 31 37  1  0
 31 42  1  0
M  END
$$$$
