23md_A_A02_401
     RDKit          3D

 45 49  0  0  0  0  0  0  0  0999 V2000
  -29.1560   24.7250   -4.5090 C   0  0  0  0  0  3  0  0  0  0  0  0
  -31.5510   23.6230   -0.4570 C   0  0  0  0  0  3  0  0  0  0  0  0
  -33.4860   24.7030    0.5040 C   0  0  0  0  0  2  0  0  0  0  0  0
  -33.3330   23.3200    1.1230 C   0  0  0  0  0  3  0  0  0  0  0  0
  -32.5260   22.5510    0.0730 C   0  0  0  0  0  3  0  0  0  0  0  0
  -32.4350   23.2820    2.3690 C   0  0  0  0  0  2  0  0  0  0  0  0
  -31.6850   21.9640    2.2760 C   0  0  0  0  0  2  0  0  0  0  0  0
  -31.8270   21.4190    0.8390 C   0  0  0  0  0  2  0  0  0  0  0  0
  -31.6890   26.0570   -0.6340 C   0  0  0  0  0  3  0  0  0  0  0  0
  -32.5350   27.3090   -0.4370 C   0  0  0  0  0  3  0  0  0  0  0  0
  -32.8800   28.2070   -1.6500 C   0  0  0  0  0  3  0  0  0  0  0  0
  -30.1660   24.9840   -5.6090 C   0  0  0  0  0  2  0  0  0  0  0  0
  -32.5840   29.6910   -1.4180 C   0  0  0  0  0  2  0  0  0  0  0  0
  -33.0720   30.5610   -2.5830 C   0  0  0  0  0  2  0  0  0  0  0  0
  -32.5870   30.0630   -3.9350 C   0  0  0  0  0  2  0  0  0  0  0  0
  -32.8040   28.5650   -4.1260 C   0  0  0  0  0  2  0  0  0  0  0  0
  -32.2550   27.7550   -2.9540 C   0  0  0  0  0  2  0  0  0  0  0  0
  -31.4830   18.8800   -6.1580 C   0  0  0  0  0  3  0  0  0  0  0  0
  -32.4450   17.7390   -5.7850 C   0  0  0  0  0  2  0  0  0  0  0  0
  -33.8430   18.2370   -6.1400 C   0  0  0  0  0  2  0  0  0  0  0  0
  -33.7260   19.6570   -6.5730 C   0  0  0  0  0  2  0  0  0  0  0  0
  -32.3190   19.8000   -7.0850 C   0  0  0  0  0  2  0  0  0  0  0  0
  -29.6630   26.2200   -6.3310 C   0  0  0  0  0  2  0  0  0  0  0  0
  -32.5630   28.2260    1.7960 C   0  0  0  0  0  3  0  0  0  0  0  0
  -31.7630   28.9110    2.8960 C   0  0  0  0  0  0  0  0  0  0  0  0
  -27.9620   25.5720   -4.9200 C   0  0  0  0  0  3  0  0  0  0  0  0
  -28.7880   23.2480   -4.3030 C   0  0  0  0  0  2  0  0  0  0  0  0
  -29.9360   22.4800   -3.6520 C   0  0  0  0  0  3  0  0  0  0  0  0
  -29.8320   20.9630   -3.6440 C   0  0  0  0  0  3  0  0  0  0  0  0
  -29.8560   20.3320   -4.9350 C   0  0  0  0  0  3  0  0  0  0  0  0
  -31.3340   23.4300   -1.9390 C   0  0  0  0  0  3  0  0  0  0  0  0
  -30.8110   28.1550    3.4070 F   0  0  0  0  0  0  0  0  0  0  0  0
  -32.5460   29.2670    3.8880 F   0  0  0  0  0  0  0  0  0  0  0  0
  -31.1620   29.9880    2.4400 F   0  0  0  0  0  0  0  0  0  0  0  0
  -28.3330   26.4520   -5.7910 N   0  0  0  0  0  2  0  0  0  0  0  0
  -30.9800   19.5660   -4.9790 N   0  0  0  0  0  2  0  0  0  0  0  0
  -30.1560   22.9050   -2.2870 N   0  0  0  0  0  2  0  0  0  0  0  0
  -32.2200   24.8930   -0.2230 N   0  0  0  0  0  0  0  0  0  0  0  0
  -31.9480   28.0860    0.6260 N   0  0  0  0  0  2  0  0  0  0  0  0
  -26.8330   25.4590   -4.4910 O   0  0  0  0  0  1  0  0  0  0  0  0
  -29.1240   20.5000   -5.9100 O   0  0  0  0  0  1  0  0  0  0  0  0
  -32.2060   23.7680   -2.7350 O   0  0  0  0  0  1  0  0  0  0  0  0
  -30.5840   26.1090   -1.1690 O   0  0  0  0  0  1  0  0  0  0  0  0
  -33.6940   27.8540    2.0300 O   0  0  0  0  0  1  0  0  0  0  0  0
  -30.3730   20.3780   -2.6710 O   0  0  0  0  0  1  0  0  0  0  0  0
  1 12  1  0
  1 26  1  0
  1 27  1  0
  2  5  1  0
  2 31  1  0
  2 38  1  0
  3  4  1  0
  3 38  1  0
  4  5  1  0
  4  6  1  0
  5  8  1  0
  6  7  1  0
  7  8  1  0
  9 10  1  0
  9 38  1  0
  9 43  1  0
 10 11  1  0
 10 39  1  0
 11 13  1  0
 11 17  1  0
 12 23  1  0
 13 14  1  0
 14 15  1  0
 15 16  1  0
 16 17  1  0
 18 19  1  0
 18 22  1  0
 18 36  1  0
 19 20  1  0
 20 21  1  0
 21 22  1  0
 23 35  1  0
 24 25  1  0
 24 39  1  0
 24 44  1  0
 25 32  1  0
 25 33  1  0
 25 34  1  0
 26 35  1  0
 26 40  1  0
 27 28  1  0
 28 29  1  0
 28 37  1  0
 29 30  1  0
 29 45  1  0
 30 36  1  0
 30 41  1  0
 31 37  1  0
 31 42  1  0
M  END
$$$$
