23me_B_7ON_401
     RDKit          3D

 45 49  0  0  0  0  0  0  0  0999 V2000
  -33.4730   27.7560   19.4320 C   0  0  0  0  0  3  0  0  0  0  0  0
  -35.9740   28.0470   23.5230 C   0  0  0  0  0  3  0  0  0  0  0  0
  -37.6630   29.6230   24.2970 C   0  0  0  0  0  2  0  0  0  0  0  0
  -37.5540   28.4820   25.2880 C   0  0  0  0  0  3  0  0  0  0  0  0
  -36.9460   27.3370   24.4480 C   0  0  0  0  0  3  0  0  0  0  0  0
  -36.4880   28.7340   26.3610 C   0  0  0  0  0  2  0  0  0  0  0  0
  -35.8300   27.3800   26.5950 C   0  0  0  0  0  2  0  0  0  0  0  0
  -36.2390   26.4390   25.4650 C   0  0  0  0  0  2  0  0  0  0  0  0
  -36.0690   30.2280   22.4430 C   0  0  0  0  0  3  0  0  0  0  0  0
  -36.8530   31.5270   22.2880 C   0  0  0  0  0  3  0  0  0  0  0  0
  -37.2590   31.9790   20.8740 C   0  0  0  0  0  3  0  0  0  0  0  0
  -34.6070   27.7870   18.4030 C   0  0  0  0  0  2  0  0  0  0  0  0
  -37.0690   33.4760   20.6370 C   0  0  0  0  0  2  0  0  0  0  0  0
  -37.6780   33.9040   19.3010 C   0  0  0  0  0  2  0  0  0  0  0  0
  -37.1270   33.0840   18.1380 C   0  0  0  0  0  2  0  0  0  0  0  0
  -37.2610   31.5770   18.3760 C   0  0  0  0  0  2  0  0  0  0  0  0
  -36.6730   31.1550   19.7250 C   0  0  0  0  0  2  0  0  0  0  0  0
  -35.9900   21.6330   19.6640 C   0  0  0  0  0  3  0  0  0  0  0  0
  -36.7770   22.2730   18.4830 C   0  0  0  0  0  2  0  0  0  0  0  0
  -38.2530   22.0590   18.7610 C   0  0  0  0  0  2  0  0  0  0  0  0
  -38.3530   21.2150   20.0250 C   0  0  0  0  0  2  0  0  0  0  0  0
  -36.9720   20.6410   20.2790 C   0  0  0  0  0  2  0  0  0  0  0  0
  -34.1790   28.8350   17.3720 C   0  0  0  0  0  2  0  0  0  0  0  0
  -37.0560   33.1580   24.0690 C   0  0  0  0  0  3  0  0  0  0  0  0
  -36.3710   34.1280   25.0480 C   0  0  0  0  0  0  0  0  0  0  0  0
  -32.3090   28.4040   18.7050 C   0  0  0  0  0  3  0  0  0  0  0  0
  -33.1410   26.3920   20.0710 C   0  0  0  0  0  2  0  0  0  0  0  0
  -34.3660   25.9070   20.8570 C   0  0  0  0  0  3  0  0  0  0  0  0
  -34.3390   24.4660   21.3620 C   0  0  0  0  0  3  0  0  0  0  0  0
  -34.4130   23.4040   20.4060 C   0  0  0  0  0  3  0  0  0  0  0  0
  -35.7920   27.3530   22.1810 C   0  0  0  0  0  3  0  0  0  0  0  0
  -36.2800   35.3600   24.5880 F   0  0  0  0  0  0  0  0  0  0  0  0
  -35.1430   33.7600   25.3420 F   0  0  0  0  0  0  0  0  0  0  0  0
  -37.0250   34.2170   26.1980 F   0  0  0  0  0  0  0  0  0  0  0  0
  -32.7270   28.8560   17.5210 N   0  0  0  0  0  2  0  0  0  0  0  0
  -35.4970   22.6150   20.6260 N   0  0  0  0  0  2  0  0  0  0  0  0
  -34.6210   26.7350   22.0170 N   0  0  0  0  0  2  0  0  0  0  0  0
  -36.5680   29.3570   23.3480 N   0  0  0  0  0  0  0  0  0  0  0  0
  -36.3020   32.5530   23.1500 N   0  0  0  0  0  2  0  0  0  0  0  0
  -31.1710   28.5130   19.1480 O   0  0  0  0  0  1  0  0  0  0  0  0
  -33.6230   23.2640   19.4650 O   0  0  0  0  0  1  0  0  0  0  0  0
  -36.6510   27.3910   21.3120 O   0  0  0  0  0  1  0  0  0  0  0  0
  -35.0220   30.0000   21.8310 O   0  0  0  0  0  1  0  0  0  0  0  0
  -38.2460   32.9530   24.2000 O   0  0  0  0  0  1  0  0  0  0  0  0
  -34.7500   24.2480   22.5080 O   0  0  0  0  0  1  0  0  0  0  0  0
  1 12  1  0
  1 26  1  0
  1 27  1  0
  2  5  1  0
  2 31  1  0
  2 38  1  0
  3  4  1  0
  3 38  1  0
  4  5  1  0
  4  6  1  0
  5  8  1  0
  6  7  1  0
  7  8  1  0
  9 10  1  0
  9 38  1  0
  9 43  1  0
 10 11  1  0
 10 39  1  0
 11 13  1  0
 11 17  1  0
 12 23  1  0
 13 14  1  0
 14 15  1  0
 15 16  1  0
 16 17  1  0
 18 19  1  0
 18 22  1  0
 18 36  1  0
 19 20  1  0
 20 21  1  0
 21 22  1  0
 23 35  1  0
 24 25  1  0
 24 39  1  0
 24 44  1  0
 25 32  1  0
 25 33  1  0
 25 34  1  0
 26 35  1  0
 26 40  1  0
 27 28  1  0
 28 29  1  0
 28 37  1  0
 29 30  1  0
 29 45  1  0
 30 36  1  0
 30 41  1  0
 31 37  1  0
 31 42  1  0
M  END
$$$$
