23mf_A_A02_401
     RDKit          3D

 45 49  0  0  0  0  0  0  0  0999 V2000
    5.1570   25.2820    4.0060 C   0  0  0  0  0  3  0  0  0  0  0  0
    7.6740   24.1510    0.2080 C   0  0  0  0  0  3  0  0  0  0  0  0
    9.6220   25.2180   -0.7740 C   0  0  0  0  0  2  0  0  0  0  0  0
    9.4500   23.8340   -1.3950 C   0  0  0  0  0  3  0  0  0  0  0  0
    8.5870   23.0670   -0.3810 C   0  0  0  0  0  3  0  0  0  0  0  0
    8.6100   23.7800   -2.6840 C   0  0  0  0  0  2  0  0  0  0  0  0
    7.9240   22.4330   -2.6560 C   0  0  0  0  0  2  0  0  0  0  0  0
    7.8910   21.9630   -1.2040 C   0  0  0  0  0  2  0  0  0  0  0  0
    7.7860   26.5780    0.2820 C   0  0  0  0  0  3  0  0  0  0  0  0
    8.5150   27.8720   -0.0040 C   0  0  0  0  0  3  0  0  0  0  0  0
    8.2170   28.9260    1.0640 C   0  0  0  0  0  3  0  0  0  0  0  0
    6.1510   25.6490    5.0970 C   0  0  0  0  0  2  0  0  0  0  0  0
    8.8790   30.2600    0.7390 C   0  0  0  0  0  2  0  0  0  0  0  0
    8.4030   31.3280    1.7200 C   0  0  0  0  0  2  0  0  0  0  0  0
    8.7440   30.9250    3.1430 C   0  0  0  0  0  2  0  0  0  0  0  0
    8.1830   29.5510    3.4780 C   0  0  0  0  0  2  0  0  0  0  0  0
    8.6180   28.4900    2.4660 C   0  0  0  0  0  2  0  0  0  0  0  0
    7.5820   19.5060    6.0850 C   0  0  0  0  0  3  0  0  0  0  0  0
    8.6560   18.4320    5.7870 C   0  0  0  0  0  2  0  0  0  0  0  0
    9.9910   19.0620    6.1610 C   0  0  0  0  0  2  0  0  0  0  0  0
    9.7050   20.5100    6.4590 C   0  0  0  0  0  2  0  0  0  0  0  0
    8.3120   20.5080    7.0080 C   0  0  0  0  0  2  0  0  0  0  0  0
    5.7020   27.0410    5.5950 C   0  0  0  0  0  2  0  0  0  0  0  0
    8.8010   28.6330   -2.2910 C   0  0  0  0  0  3  0  0  0  0  0  0
    8.1620   29.3850   -3.4540 C   0  0  0  0  0  0  0  0  0  0  0  0
    3.9620   26.1800    4.3020 C   0  0  0  0  0  3  0  0  0  0  0  0
    4.7740   23.7840    3.9340 C   0  0  0  0  0  2  0  0  0  0  0  0
    5.9860   23.0350    3.3710 C   0  0  0  0  0  3  0  0  0  0  0  0
    5.9850   21.5120    3.4470 C   0  0  0  0  0  3  0  0  0  0  0  0
    5.9750   20.8920    4.7650 C   0  0  0  0  0  3  0  0  0  0  0  0
    7.4600   23.9810    1.6940 C   0  0  0  0  0  3  0  0  0  0  0  0
    8.2920   30.6950   -3.3460 F   0  0  0  0  0  0  0  0  0  0  0  0
    6.8560   29.1480   -3.5160 F   0  0  0  0  0  0  0  0  0  0  0  0
    8.7050   29.0400   -4.6100 F   0  0  0  0  0  0  0  0  0  0  0  0
    4.3420   27.1730    5.1040 N   0  0  0  0  0  2  0  0  0  0  0  0
    7.0750   20.1310    4.8690 N   0  0  0  0  0  2  0  0  0  0  0  0
    6.2790   23.4350    2.0120 N   0  0  0  0  0  2  0  0  0  0  0  0
    8.3600   25.4110   -0.0490 N   0  0  0  0  0  0  0  0  0  0  0  0
    8.0140   28.3780   -1.2540 N   0  0  0  0  0  2  0  0  0  0  0  0
    2.8090   26.0210    3.8640 O   0  0  0  0  0  1  0  0  0  0  0  0
    5.1990   21.0830    5.7080 O   0  0  0  0  0  1  0  0  0  0  0  0
    8.3440   24.2910    2.5150 O   0  0  0  0  0  1  0  0  0  0  0  0
    6.6770   26.6420    0.7890 O   0  0  0  0  0  1  0  0  0  0  0  0
    9.9560   28.3060   -2.3310 O   0  0  0  0  0  1  0  0  0  0  0  0
    6.6460   20.9110    2.5270 O   0  0  0  0  0  1  0  0  0  0  0  0
  1 12  1  0
  1 26  1  0
  1 27  1  0
  2  5  1  0
  2 31  1  0
  2 38  1  0
  3  4  1  0
  3 38  1  0
  4  5  1  0
  4  6  1  0
  5  8  1  0
  6  7  1  0
  7  8  1  0
  9 10  1  0
  9 38  1  0
  9 43  1  0
 10 11  1  0
 10 39  1  0
 11 13  1  0
 11 17  1  0
 12 23  1  0
 13 14  1  0
 14 15  1  0
 15 16  1  0
 16 17  1  0
 18 19  1  0
 18 22  1  0
 18 36  1  0
 19 20  1  0
 20 21  1  0
 21 22  1  0
 23 35  1  0
 24 25  1  0
 24 39  1  0
 24 44  1  0
 25 32  1  0
 25 33  1  0
 25 34  1  0
 26 35  1  0
 26 40  1  0
 27 28  1  0
 28 29  1  0
 28 37  1  0
 29 30  1  0
 29 45  1  0
 30 36  1  0
 30 41  1  0
 31 37  1  0
 31 42  1  0
M  END
$$$$
