23mg_B_A02_401
     RDKit          3D

 45 49  0  0  0  0  0  0  0  0999 V2000
  -33.1180   28.3210   19.3290 C   0  0  0  0  0  3  0  0  0  0  0  0
  -35.8180   28.4320   23.4090 C   0  0  0  0  0  3  0  0  0  0  0  0
  -37.6940   29.9120   23.9350 C   0  0  0  0  0  2  0  0  0  0  0  0
  -37.7220   28.7330   24.9040 C   0  0  0  0  0  3  0  0  0  0  0  0
  -36.8450   27.6480   24.2340 C   0  0  0  0  0  3  0  0  0  0  0  0
  -37.0380   29.0030   26.2530 C   0  0  0  0  0  2  0  0  0  0  0  0
  -36.0630   27.8470   26.4810 C   0  0  0  0  0  2  0  0  0  0  0  0
  -36.3100   26.8210   25.4090 C   0  0  0  0  0  2  0  0  0  0  0  0
  -35.8000   30.6530   22.4370 C   0  0  0  0  0  3  0  0  0  0  0  0
  -36.4510   32.0280   22.2100 C   0  0  0  0  0  3  0  0  0  0  0  0
  -35.9740   32.6020   20.8600 C   0  0  0  0  0  3  0  0  0  0  0  0
  -34.2110   28.3660   18.2420 C   0  0  0  0  0  2  0  0  0  0  0  0
  -36.2760   31.6780   19.6830 C   0  0  0  0  0  2  0  0  0  0  0  0
  -37.7620   31.6290   19.3680 C   0  0  0  0  0  2  0  0  0  0  0  0
  -38.2720   33.0250   19.0680 C   0  0  0  0  0  2  0  0  0  0  0  0
  -37.9910   33.9810   20.2220 C   0  0  0  0  0  2  0  0  0  0  0  0
  -36.5130   34.0080   20.5940 C   0  0  0  0  0  2  0  0  0  0  0  0
  -36.0540   22.7270   19.7070 C   0  0  0  0  0  3  0  0  0  0  0  0
  -36.5220   21.2800   19.7630 C   0  0  0  0  0  2  0  0  0  0  0  0
  -37.8990   21.3860   19.1230 C   0  0  0  0  0  2  0  0  0  0  0  0
  -37.8170   22.5410   18.1330 C   0  0  0  0  0  2  0  0  0  0  0  0
  -36.3990   23.0780   18.2500 C   0  0  0  0  0  2  0  0  0  0  0  0
  -33.7180   29.3590   17.2030 C   0  0  0  0  0  2  0  0  0  0  0  0
  -36.9150   33.5040   24.1490 C   0  0  0  0  0  3  0  0  0  0  0  0
  -36.2870   34.6150   24.9870 C   0  0  0  0  0  0  0  0  0  0  0  0
  -31.9350   29.0390   18.7070 C   0  0  0  0  0  3  0  0  0  0  0  0
  -32.8000   26.9490   19.9720 C   0  0  0  0  0  2  0  0  0  0  0  0
  -34.0630   26.4570   20.6970 C   0  0  0  0  0  3  0  0  0  0  0  0
  -34.1350   24.9410   20.9840 C   0  0  0  0  0  3  0  0  0  0  0  0
  -33.9880   23.9900   19.9360 C   0  0  0  0  0  3  0  0  0  0  0  0
  -35.5500   27.7980   22.0530 C   0  0  0  0  0  3  0  0  0  0  0  0
  -34.9660   34.5280   24.9530 F   0  0  0  0  0  0  0  0  0  0  0  0
  -36.5810   35.8200   24.5600 F   0  0  0  0  0  0  0  0  0  0  0  0
  -36.7010   34.5800   26.2420 F   0  0  0  0  0  0  0  0  0  0  0  0
  -32.3130   29.5830   17.5590 N   0  0  0  0  0  2  0  0  0  0  0  0
  -34.6540   22.8790   20.0520 N   0  0  0  0  0  2  0  0  0  0  0  0
  -34.3330   27.2380   21.8910 N   0  0  0  0  0  2  0  0  0  0  0  0
  -36.4330   29.7450   23.2000 N   0  0  0  0  0  0  0  0  0  0  0  0
  -36.0780   32.8970   23.3130 N   0  0  0  0  0  2  0  0  0  0  0  0
  -30.7950   29.1320   19.2110 O   0  0  0  0  0  1  0  0  0  0  0  0
  -33.3380   24.1950   18.9270 O   0  0  0  0  0  1  0  0  0  0  0  0
  -36.4090   27.8740   21.1650 O   0  0  0  0  0  1  0  0  0  0  0  0
  -34.6760   30.4090   21.9420 O   0  0  0  0  0  1  0  0  0  0  0  0
  -38.0860   33.2330   24.3170 O   0  0  0  0  0  1  0  0  0  0  0  0
  -34.7410   24.5460   22.0120 O   0  0  0  0  0  1  0  0  0  0  0  0
  1 12  1  0
  1 26  1  0
  1 27  1  0
  2  5  1  0
  2 31  1  0
  2 38  1  0
  3  4  1  0
  3 38  1  0
  4  5  1  0
  4  6  1  0
  5  8  1  0
  6  7  1  0
  7  8  1  0
  9 10  1  0
  9 38  1  0
  9 43  1  0
 10 11  1  0
 10 39  1  0
 11 13  1  0
 11 17  1  0
 12 23  1  0
 13 14  1  0
 14 15  1  0
 15 16  1  0
 16 17  1  0
 18 19  1  0
 18 22  1  0
 18 36  1  0
 19 20  1  0
 20 21  1  0
 21 22  1  0
 23 35  1  0
 24 25  1  0
 24 39  1  0
 24 44  1  0
 25 32  1  0
 25 33  1  0
 25 34  1  0
 26 35  1  0
 26 40  1  0
 27 28  1  0
 28 29  1  0
 28 37  1  0
 29 30  1  0
 29 45  1  0
 30 36  1  0
 30 41  1  0
 31 37  1  0
 31 42  1  0
M  END
$$$$
