23mh_A_7ON_401
     RDKit          3D

 45 49  0  0  0  0  0  0  0  0999 V2000
    5.0920   24.8510    4.1910 C   0  0  0  0  0  3  0  0  0  0  0  0
    7.4480   23.6100    0.1900 C   0  0  0  0  0  3  0  0  0  0  0  0
    9.3750   24.5800   -0.8960 C   0  0  0  0  0  2  0  0  0  0  0  0
    9.2230   23.1430   -1.3710 C   0  0  0  0  0  3  0  0  0  0  0  0
    8.3970   22.4890   -0.2640 C   0  0  0  0  0  3  0  0  0  0  0  0
    8.3730   22.9760   -2.6430 C   0  0  0  0  0  2  0  0  0  0  0  0
    7.4800   21.7850   -2.3850 C   0  0  0  0  0  2  0  0  0  0  0  0
    7.7020   21.3150   -0.9430 C   0  0  0  0  0  2  0  0  0  0  0  0
    7.6630   26.0320    0.2060 C   0  0  0  0  0  3  0  0  0  0  0  0
    8.5610   27.1930   -0.1040 C   0  0  0  0  0  3  0  0  0  0  0  0
    9.2070   27.9390    1.0650 C   0  0  0  0  0  3  0  0  0  0  0  0
    6.3330   25.1990    5.0120 C   0  0  0  0  0  2  0  0  0  0  0  0
    8.7730   27.4240    2.4240 C   0  0  0  0  0  2  0  0  0  0  0  0
    9.5840   28.0800    3.5330 C   0  0  0  0  0  2  0  0  0  0  0  0
    9.4900   29.5970    3.4670 C   0  0  0  0  0  2  0  0  0  0  0  0
    9.8310   30.1430    2.0960 C   0  0  0  0  0  2  0  0  0  0  0  0
    9.0520   29.4520    0.9830 C   0  0  0  0  0  2  0  0  0  0  0  0
    7.4160   19.2370    6.1520 C   0  0  0  0  0  3  0  0  0  0  0  0
    8.4490   18.1200    5.9210 C   0  0  0  0  0  2  0  0  0  0  0  0
    9.8200   18.7470    6.1190 C   0  0  0  0  0  2  0  0  0  0  0  0
    9.6070   20.1510    6.5950 C   0  0  0  0  0  2  0  0  0  0  0  0
    8.1440   20.2550    6.9910 C   0  0  0  0  0  2  0  0  0  0  0  0
    5.8940   26.3100    5.9760 C   0  0  0  0  0  2  0  0  0  0  0  0
    8.4350   28.2380   -2.2320 C   0  0  0  0  0  3  0  0  0  0  0  0
    7.6810   29.1460   -3.1910 C   0  0  0  0  0  0  0  0  0  0  0  0
    3.9800   25.7220    4.7470 C   0  0  0  0  0  3  0  0  0  0  0  0
    4.7720   23.3750    4.1320 C   0  0  0  0  0  2  0  0  0  0  0  0
    5.9420   22.6300    3.4900 C   0  0  0  0  0  3  0  0  0  0  0  0
    5.8760   21.1090    3.5170 C   0  0  0  0  0  3  0  0  0  0  0  0
    5.8650   20.5240    4.8030 C   0  0  0  0  0  3  0  0  0  0  0  0
    7.2850   23.5100    1.6920 C   0  0  0  0  0  3  0  0  0  0  0  0
    7.9680   30.4070   -2.9560 F   0  0  0  0  0  0  0  0  0  0  0  0
    6.3730   29.0230   -3.0720 F   0  0  0  0  0  0  0  0  0  0  0  0
    7.9680   28.8730   -4.4560 F   0  0  0  0  0  0  0  0  0  0  0  0
    4.4820   26.5180    5.6730 N   0  0  0  0  0  2  0  0  0  0  0  0
    6.9380   19.7890    4.8990 N   0  0  0  0  0  2  0  0  0  0  0  0
    6.1250   22.9890    2.0980 N   0  0  0  0  0  2  0  0  0  0  0  0
    8.1290   24.8340   -0.1630 N   0  0  0  0  0  0  0  0  0  0  0  0
    7.8600   28.0110   -1.0520 N   0  0  0  0  0  2  0  0  0  0  0  0
    2.7690   25.7400    4.3500 O   0  0  0  0  0  1  0  0  0  0  0  0
    5.0970   20.6840    5.7400 O   0  0  0  0  0  1  0  0  0  0  0  0
    8.2030   23.8410    2.4520 O   0  0  0  0  0  1  0  0  0  0  0  0
    6.5760   26.1880    0.7380 O   0  0  0  0  0  1  0  0  0  0  0  0
    9.5130   27.7890   -2.5680 O   0  0  0  0  0  1  0  0  0  0  0  0
    6.3170   20.4750    2.4960 O   0  0  0  0  0  1  0  0  0  0  0  0
  1 12  1  0
  1 26  1  0
  1 27  1  0
  2  5  1  0
  2 31  1  0
  2 38  1  0
  3  4  1  0
  3 38  1  0
  4  5  1  0
  4  6  1  0
  5  8  1  0
  6  7  1  0
  7  8  1  0
  9 10  1  0
  9 38  1  0
  9 43  1  0
 10 11  1  0
 10 39  1  0
 11 13  1  0
 11 17  1  0
 12 23  1  0
 13 14  1  0
 14 15  1  0
 15 16  1  0
 16 17  1  0
 18 19  1  0
 18 22  1  0
 18 36  1  0
 19 20  1  0
 20 21  1  0
 21 22  1  0
 23 35  1  0
 24 25  1  0
 24 39  1  0
 24 44  1  0
 25 32  1  0
 25 33  1  0
 25 34  1  0
 26 35  1  0
 26 40  1  0
 27 28  1  0
 28 29  1  0
 28 37  1  0
 29 30  1  0
 29 45  1  0
 30 36  1  0
 30 41  1  0
 31 37  1  0
 31 42  1  0
M  END
$$$$
