23mh_B_7ON_401
     RDKit          3D

 45 49  0  0  0  0  0  0  0  0999 V2000
  -33.3680   27.5240   19.3100 C   0  0  0  0  0  3  0  0  0  0  0  0
  -35.9130   27.5880   23.4870 C   0  0  0  0  0  3  0  0  0  0  0  0
  -37.7610   28.9990   24.2620 C   0  0  0  0  0  2  0  0  0  0  0  0
  -37.6690   27.7620   25.1450 C   0  0  0  0  0  3  0  0  0  0  0  0
  -36.8650   26.7260   24.3230 C   0  0  0  0  0  3  0  0  0  0  0  0
  -36.8450   27.9820   26.4270 C   0  0  0  0  0  2  0  0  0  0  0  0
  -35.8810   26.7890   26.5100 C   0  0  0  0  0  2  0  0  0  0  0  0
  -36.2220   25.8270   25.3910 C   0  0  0  0  0  2  0  0  0  0  0  0
  -36.0450   29.8450   22.6380 C   0  0  0  0  0  3  0  0  0  0  0  0
  -36.8300   31.1370   22.4950 C   0  0  0  0  0  3  0  0  0  0  0  0
  -37.3580   31.5160   21.1100 C   0  0  0  0  0  3  0  0  0  0  0  0
  -34.6070   27.6110   18.3800 C   0  0  0  0  0  2  0  0  0  0  0  0
  -36.9970   30.5880   19.9660 C   0  0  0  0  0  2  0  0  0  0  0  0
  -37.9490   30.8630   18.7970 C   0  0  0  0  0  2  0  0  0  0  0  0
  -37.9230   32.3160   18.3390 C   0  0  0  0  0  2  0  0  0  0  0  0
  -37.9810   33.3520   19.4710 C   0  0  0  0  0  2  0  0  0  0  0  0
  -37.1530   32.9630   20.7010 C   0  0  0  0  0  2  0  0  0  0  0  0
  -35.7830   21.4610   19.3210 C   0  0  0  0  0  3  0  0  0  0  0  0
  -36.8070   20.4960   19.9190 C   0  0  0  0  0  2  0  0  0  0  0  0
  -38.1340   21.2420   19.8310 C   0  0  0  0  0  2  0  0  0  0  0  0
  -38.0480   22.1090   18.5970 C   0  0  0  0  0  2  0  0  0  0  0  0
  -36.5840   22.1310   18.1750 C   0  0  0  0  0  2  0  0  0  0  0  0
  -34.1910   28.5570   17.2480 C   0  0  0  0  0  2  0  0  0  0  0  0
  -36.8310   32.8320   24.1880 C   0  0  0  0  0  3  0  0  0  0  0  0
  -36.1210   34.0230   24.8350 C   0  0  0  0  0  0  0  0  0  0  0  0
  -32.2440   28.1560   18.5070 C   0  0  0  0  0  3  0  0  0  0  0  0
  -33.0410   26.2050   19.9540 C   0  0  0  0  0  2  0  0  0  0  0  0
  -34.2660   25.6710   20.6970 C   0  0  0  0  0  3  0  0  0  0  0  0
  -34.2140   24.2030   21.1360 C   0  0  0  0  0  3  0  0  0  0  0  0
  -34.2280   23.2290   20.1230 C   0  0  0  0  0  3  0  0  0  0  0  0
  -35.7160   27.0490   22.0830 C   0  0  0  0  0  3  0  0  0  0  0  0
  -34.8320   33.7630   24.9360 F   0  0  0  0  0  0  0  0  0  0  0  0
  -36.5860   34.3150   26.0360 F   0  0  0  0  0  0  0  0  0  0  0  0
  -36.2120   35.1340   24.1450 F   0  0  0  0  0  0  0  0  0  0  0  0
  -32.7270   28.5610   17.3310 N   0  0  0  0  0  2  0  0  0  0  0  0
  -35.2670   22.4100   20.3100 N   0  0  0  0  0  2  0  0  0  0  0  0
  -34.5420   26.4390   21.8820 N   0  0  0  0  0  2  0  0  0  0  0  0
  -36.5620   28.8990   23.4200 N   0  0  0  0  0  0  0  0  0  0  0  0
  -36.2020   32.2350   23.1830 N   0  0  0  0  0  2  0  0  0  0  0  0
  -31.0820   28.3380   18.9110 O   0  0  0  0  0  1  0  0  0  0  0  0
  -33.4440   23.1830   19.1780 O   0  0  0  0  0  1  0  0  0  0  0  0
  -36.5720   27.2070   21.2110 O   0  0  0  0  0  1  0  0  0  0  0  0
  -34.9690   29.6720   22.0970 O   0  0  0  0  0  1  0  0  0  0  0  0
  -37.8870   32.4510   24.6370 O   0  0  0  0  0  1  0  0  0  0  0  0
  -34.6760   23.8960   22.2640 O   0  0  0  0  0  1  0  0  0  0  0  0
  1 12  1  0
  1 26  1  0
  1 27  1  0
  2  5  1  0
  2 31  1  0
  2 38  1  0
  3  4  1  0
  3 38  1  0
  4  5  1  0
  4  6  1  0
  5  8  1  0
  6  7  1  0
  7  8  1  0
  9 10  1  0
  9 38  1  0
  9 43  1  0
 10 11  1  0
 10 39  1  0
 11 13  1  0
 11 17  1  0
 12 23  1  0
 13 14  1  0
 14 15  1  0
 15 16  1  0
 16 17  1  0
 18 19  1  0
 18 22  1  0
 18 36  1  0
 19 20  1  0
 20 21  1  0
 21 22  1  0
 23 35  1  0
 24 25  1  0
 24 39  1  0
 24 44  1  0
 25 32  1  0
 25 33  1  0
 25 34  1  0
 26 35  1  0
 26 40  1  0
 27 28  1  0
 28 29  1  0
 28 37  1  0
 29 30  1  0
 29 45  1  0
 30 36  1  0
 30 41  1  0
 31 37  1  0
 31 42  1  0
M  END
$$$$
