23mi_A_A02_401
     RDKit          3D

 45 49  0  0  0  0  0  0  0  0999 V2000
    4.7060   25.0360    3.8770 C   0  0  0  0  0  3  0  0  0  0  0  0
    7.4100   23.8890    0.1490 C   0  0  0  0  0  3  0  0  0  0  0  0
    9.4570   24.9790   -0.5740 C   0  0  0  0  0  2  0  0  0  0  0  0
    9.4770   23.5550   -1.1290 C   0  0  0  0  0  3  0  0  0  0  0  0
    8.3660   22.8100   -0.3540 C   0  0  0  0  0  3  0  0  0  0  0  0
    9.0780   23.4510   -2.6130 C   0  0  0  0  0  2  0  0  0  0  0  0
    8.1470   22.2620   -2.7210 C   0  0  0  0  0  2  0  0  0  0  0  0
    7.7410   21.8100   -1.3250 C   0  0  0  0  0  2  0  0  0  0  0  0
    7.3810   26.2950    0.0970 C   0  0  0  0  0  3  0  0  0  0  0  0
    8.0290   27.6460   -0.1800 C   0  0  0  0  0  3  0  0  0  0  0  0
    7.6510   28.6630    0.9040 C   0  0  0  0  0  3  0  0  0  0  0  0
    5.6370   25.4560    5.0020 C   0  0  0  0  0  2  0  0  0  0  0  0
    8.1960   30.0480    0.5780 C   0  0  0  0  0  2  0  0  0  0  0  0
    7.8280   31.0560    1.6640 C   0  0  0  0  0  2  0  0  0  0  0  0
    8.2120   30.5860    3.0610 C   0  0  0  0  0  2  0  0  0  0  0  0
    7.6630   29.2030    3.3570 C   0  0  0  0  0  2  0  0  0  0  0  0
    8.0960   28.2050    2.2860 C   0  0  0  0  0  2  0  0  0  0  0  0
    7.1310   19.3400    6.0520 C   0  0  0  0  0  3  0  0  0  0  0  0
    8.0530   18.1150    5.7770 C   0  0  0  0  0  2  0  0  0  0  0  0
    9.3650   18.4190    6.5050 C   0  0  0  0  0  2  0  0  0  0  0  0
    9.3790   19.9080    6.6060 C   0  0  0  0  0  2  0  0  0  0  0  0
    7.9370   20.2590    6.9270 C   0  0  0  0  0  2  0  0  0  0  0  0
    5.2340   26.8790    5.3620 C   0  0  0  0  0  2  0  0  0  0  0  0
    8.4480   28.2470   -2.5000 C   0  0  0  0  0  3  0  0  0  0  0  0
    7.8900   28.9820   -3.7150 C   0  0  0  0  0  0  0  0  0  0  0  0
    3.5140   25.9560    4.0660 C   0  0  0  0  0  3  0  0  0  0  0  0
    4.3690   23.5280    3.7990 C   0  0  0  0  0  2  0  0  0  0  0  0
    5.6070   22.7820    3.2750 C   0  0  0  0  0  3  0  0  0  0  0  0
    5.5870   21.2670    3.3460 C   0  0  0  0  0  3  0  0  0  0  0  0
    5.5860   20.7160    4.7000 C   0  0  0  0  0  3  0  0  0  0  0  0
    7.1560   23.7090    1.6370 C   0  0  0  0  0  3  0  0  0  0  0  0
    6.5650   28.9100   -3.7280 F   0  0  0  0  0  0  0  0  0  0  0  0
    8.3370   28.4650   -4.8350 F   0  0  0  0  0  0  0  0  0  0  0  0
    8.2240   30.2600   -3.7310 F   0  0  0  0  0  0  0  0  0  0  0  0
    3.8350   26.9210    4.9540 N   0  0  0  0  0  2  0  0  0  0  0  0
    6.6980   19.9880    4.8210 N   0  0  0  0  0  2  0  0  0  0  0  0
    5.9650   23.1700    1.9270 N   0  0  0  0  0  2  0  0  0  0  0  0
    8.0630   25.1590   -0.1180 N   0  0  0  0  0  0  0  0  0  0  0  0
    7.6050   28.1400   -1.4710 N   0  0  0  0  0  2  0  0  0  0  0  0
    2.4460   25.8690    3.4460 O   0  0  0  0  0  1  0  0  0  0  0  0
    4.8300   20.9310    5.6600 O   0  0  0  0  0  1  0  0  0  0  0  0
    7.9940   24.0630    2.4720 O   0  0  0  0  0  1  0  0  0  0  0  0
    6.2040   26.2680    0.4840 O   0  0  0  0  0  1  0  0  0  0  0  0
    9.6000   27.8500   -2.5120 O   0  0  0  0  0  1  0  0  0  0  0  0
    6.2600   20.6290    2.4600 O   0  0  0  0  0  1  0  0  0  0  0  0
  1 12  1  0
  1 26  1  0
  1 27  1  0
  2  5  1  0
  2 31  1  0
  2 38  1  0
  3  4  1  0
  3 38  1  0
  4  5  1  0
  4  6  1  0
  5  8  1  0
  6  7  1  0
  7  8  1  0
  9 10  1  0
  9 38  1  0
  9 43  1  0
 10 11  1  0
 10 39  1  0
 11 13  1  0
 11 17  1  0
 12 23  1  0
 13 14  1  0
 14 15  1  0
 15 16  1  0
 16 17  1  0
 18 19  1  0
 18 22  1  0
 18 36  1  0
 19 20  1  0
 20 21  1  0
 21 22  1  0
 23 35  1  0
 24 25  1  0
 24 39  1  0
 24 44  1  0
 25 32  1  0
 25 33  1  0
 25 34  1  0
 26 35  1  0
 26 40  1  0
 27 28  1  0
 28 29  1  0
 28 37  1  0
 29 30  1  0
 29 45  1  0
 30 36  1  0
 30 41  1  0
 31 37  1  0
 31 42  1  0
M  END
$$$$
