23ml_A_7ON_401
     RDKit          3D

 45 49  0  0  0  0  0  0  0  0999 V2000
  -29.0890   24.5380   -4.3330 C   0  0  0  0  0  3  0  0  0  0  0  0
  -31.5160   23.5400   -0.2470 C   0  0  0  0  0  3  0  0  0  0  0  0
  -33.4280   24.6840    0.7260 C   0  0  0  0  0  2  0  0  0  0  0  0
  -33.2740   23.3290    1.4130 C   0  0  0  0  0  3  0  0  0  0  0  0
  -32.4740   22.5080    0.4010 C   0  0  0  0  0  3  0  0  0  0  0  0
  -32.3760   23.3590    2.6630 C   0  0  0  0  0  2  0  0  0  0  0  0
  -31.6760   22.0010    2.6810 C   0  0  0  0  0  2  0  0  0  0  0  0
  -31.8020   21.4130    1.2500 C   0  0  0  0  0  2  0  0  0  0  0  0
  -31.5850   25.9980   -0.3680 C   0  0  0  0  0  3  0  0  0  0  0  0
  -32.3560   27.2780   -0.0830 C   0  0  0  0  0  3  0  0  0  0  0  0
  -32.7060   28.2690   -1.2110 C   0  0  0  0  0  3  0  0  0  0  0  0
  -29.9830   24.8260   -5.5250 C   0  0  0  0  0  2  0  0  0  0  0  0
  -32.1640   27.8750   -2.5760 C   0  0  0  0  0  2  0  0  0  0  0  0
  -32.6560   28.8330   -3.6550 C   0  0  0  0  0  2  0  0  0  0  0  0
  -32.3800   30.2970   -3.3410 C   0  0  0  0  0  2  0  0  0  0  0  0
  -32.8370   30.7000   -1.9500 C   0  0  0  0  0  2  0  0  0  0  0  0
  -32.3480   29.7240   -0.8780 C   0  0  0  0  0  2  0  0  0  0  0  0
  -32.0380   19.2180   -5.5490 C   0  0  0  0  0  3  0  0  0  0  0  0
  -32.3360   19.8140   -6.9040 C   0  0  0  0  0  2  0  0  0  0  0  0
  -33.8220   19.5090   -6.9860 C   0  0  0  0  0  2  0  0  0  0  0  0
  -33.9830   18.1520   -6.3510 C   0  0  0  0  0  2  0  0  0  0  0  0
  -32.6320   17.8200   -5.7430 C   0  0  0  0  0  2  0  0  0  0  0  0
  -29.6580   26.2970   -5.8540 C   0  0  0  0  0  2  0  0  0  0  0  0
  -32.6670   28.1710    2.0870 C   0  0  0  0  0  3  0  0  0  0  0  0
  -32.1290   28.7280    3.3930 C   0  0  0  0  0  0  0  0  0  0  0  0
  -27.9170   25.4930   -4.5330 C   0  0  0  0  0  3  0  0  0  0  0  0
  -28.7630   23.0690   -4.1370 C   0  0  0  0  0  2  0  0  0  0  0  0
  -29.9680   22.3390   -3.5020 C   0  0  0  0  0  3  0  0  0  0  0  0
  -29.9410   20.8030   -3.5850 C   0  0  0  0  0  3  0  0  0  0  0  0
  -29.8480   20.1720   -4.8820 C   0  0  0  0  0  3  0  0  0  0  0  0
  -31.3130   23.3340   -1.7440 C   0  0  0  0  0  3  0  0  0  0  0  0
  -30.7950   28.7740    3.4600 F   0  0  0  0  0  0  0  0  0  0  0  0
  -32.5490   27.9310    4.3440 F   0  0  0  0  0  0  0  0  0  0  0  0
  -32.6150   29.9450    3.6470 F   0  0  0  0  0  0  0  0  0  0  0  0
  -28.2870   26.4360   -5.3790 N   0  0  0  0  0  2  0  0  0  0  0  0
  -30.6450   19.1680   -5.1760 N   0  0  0  0  0  2  0  0  0  0  0  0
  -30.1720   22.7440   -2.1230 N   0  0  0  0  0  2  0  0  0  0  0  0
  -32.1610   24.8360   -0.0020 N   0  0  0  0  0  0  0  0  0  0  0  0
  -31.8160   27.9330    1.0930 N   0  0  0  0  0  2  0  0  0  0  0  0
  -26.7810   25.4020   -3.9990 O   0  0  0  0  0  1  0  0  0  0  0  0
  -28.9500   20.4210   -5.6600 O   0  0  0  0  0  1  0  0  0  0  0  0
  -32.1590   23.7290   -2.5430 O   0  0  0  0  0  1  0  0  0  0  0  0
  -30.4720   26.0280   -0.8920 O   0  0  0  0  0  1  0  0  0  0  0  0
  -33.8450   27.8650    2.0670 O   0  0  0  0  0  1  0  0  0  0  0  0
  -30.3940   20.1350   -2.5980 O   0  0  0  0  0  1  0  0  0  0  0  0
  1 12  1  0
  1 26  1  0
  1 27  1  0
  2  5  1  0
  2 31  1  0
  2 38  1  0
  3  4  1  0
  3 38  1  0
  4  5  1  0
  4  6  1  0
  5  8  1  0
  6  7  1  0
  7  8  1  0
  9 10  1  0
  9 38  1  0
  9 43  1  0
 10 11  1  0
 10 39  1  0
 11 13  1  0
 11 17  1  0
 12 23  1  0
 13 14  1  0
 14 15  1  0
 15 16  1  0
 16 17  1  0
 18 19  1  0
 18 22  1  0
 18 36  1  0
 19 20  1  0
 20 21  1  0
 21 22  1  0
 23 35  1  0
 24 25  1  0
 24 39  1  0
 24 44  1  0
 25 32  1  0
 25 33  1  0
 25 34  1  0
 26 35  1  0
 26 40  1  0
 27 28  1  0
 28 29  1  0
 28 37  1  0
 29 30  1  0
 29 45  1  0
 30 36  1  0
 30 41  1  0
 31 37  1  0
 31 42  1  0
M  END
$$$$
