6z2e_A_Q5T_401
     RDKit          3D

 67 68  0  0  0  0  0  0  0  0999 V2000
  -18.1540  -31.2400   -4.8980 C   0  0  0  0  0  2  0  0  0  0  0  0
  -19.2780  -32.1740   -5.2740 C   0  0  0  0  0  2  0  0  0  0  0  0
  -19.8260  -32.9870   -4.1110 C   0  0  0  0  0  3  0  0  0  0  0  0
  -17.6010  -31.5330   -8.3580 C   0  0  0  0  0  3  0  0  0  0  0  0
  -16.8340  -32.4890   -9.2380 C   0  0  0  0  0  3  0  0  0  0  0  0
  -15.8730  -31.7200  -10.1470 C   0  0  0  0  0  2  0  0  0  0  0  0
  -15.1870  -32.6540  -11.1420 C   0  0  0  0  0  3  0  0  0  0  0  0
  -14.5080  -33.8290  -10.4670 C   0  0  0  0  0  1  0  0  0  0  0  0
  -14.2420  -31.8170  -12.0210 C   0  0  0  0  0  1  0  0  0  0  0  0
  -18.4340  -34.2370   -9.3640 C   0  0  0  0  0  3  0  0  0  0  0  0
  -19.4960  -34.9610  -10.1350 C   0  0  0  0  0  3  0  0  0  0  0  0
  -20.9150  -34.6000   -9.6610 C   0  0  0  0  0  0  0  0  0  0  0  0
  -21.1360  -33.1110   -9.8470 C   0  0  0  0  0  1  0  0  0  0  0  0
  -21.1780  -34.9420   -8.1910 C   0  0  0  0  0  1  0  0  0  0  0  0
  -21.9100  -35.4940  -10.4370 C   0  0  0  0  0  1  0  0  0  0  0  0
  -19.0400  -37.1680  -11.0250 C   0  0  0  0  0  3  0  0  0  0  0  0
  -18.6910  -38.6240  -10.7200 C   0  0  0  0  0  3  0  0  0  0  0  0
  -17.2190  -38.9220  -10.3720 C   0  0  0  0  0  2  0  0  0  0  0  0
  -16.3110  -37.9290  -10.9660 C   0  0  0  0  0  1  0  0  0  0  0  0
  -16.7710  -25.9470   -8.0250 C   0  0  0  0  0  1  0  0  0  0  0  0
  -20.3780  -39.8590  -11.9230 C   0  0  0  0  0  3  0  0  0  0  0  0
  -20.8120  -40.8610  -12.9950 C   0  0  0  0  0  2  0  0  0  0  0  0
  -20.8740  -40.1480  -14.3540 C   0  0  0  0  0  2  0  0  0  0  0  0
  -21.1860  -40.5800  -16.7110 C   0  0  0  0  0  2  0  0  0  0  0  0
  -20.3910  -41.2080  -17.8450 C   0  0  0  0  0  2  0  0  0  0  0  0
  -18.3150  -40.8510  -19.0620 C   0  0  0  0  0  2  0  0  0  0  0  0
  -16.7230  -28.3440   -6.9660 C   0  0  0  0  0  2  0  0  0  0  0  0
  -17.7050  -42.2550  -18.9120 C   0  0  0  0  0  2  0  0  0  0  0  0
  -15.4650  -42.9000  -19.6540 C   0  0  0  0  0  2  0  0  0  0  0  0
  -15.0640  -42.0190  -20.8430 C   0  0  0  0  0  2  0  0  0  0  0  0
  -13.0830  -40.8480  -21.5910 C   0  0  0  0  0  2  0  0  0  0  0  0
  -13.6840  -39.6230  -22.2680 C   0  0  0  0  0  2  0  0  0  0  0  0
  -13.5380  -38.5270  -24.4540 C   0  0  0  0  0  3  0  0  0  0  0  0
  -16.8480  -29.2840   -5.7730 C   0  0  0  0  0  2  0  0  0  0  0  0
  -13.2680  -38.7230  -25.9310 C   0  0  0  0  0  2  0  0  0  0  0  0
  -13.6140  -37.4940  -26.7790 C   0  0  0  0  0  2  0  0  0  0  0  0
  -13.0580  -37.5810  -28.2030 C   0  0  0  0  0  2  0  0  0  0  0  0
  -13.2290  -38.9500  -28.8730 C   0  0  0  0  0  2  0  0  0  0  0  0
  -14.6880  -39.3920  -28.9570 C   0  0  0  0  0  3  0  0  0  0  0  0
  -14.8470  -40.7950  -29.5380 C   0  0  0  0  0  3  0  0  0  0  0  0
  -15.8210  -40.8440  -30.7170 C   0  0  0  0  0  3  0  0  0  0  0  0
  -16.3580  -39.4760  -31.1030 C   0  0  0  0  0  2  0  0  0  0  0  0
  -17.7640  -30.4600   -6.1400 C   0  0  0  0  0  3  0  0  0  0  0  0
  -16.5840  -42.2920  -29.0620 C   0  0  0  0  0  3  0  0  0  0  0  0
  -17.1910  -31.4010   -7.0910 N   0  0  0  0  0  2  0  0  0  0  0  0
  -21.2150  -33.0460   -4.0080 N   0  0  0  0  0  1  0  0  0  0  0  0
  -17.7660  -33.2890   -9.9690 N   0  0  0  0  0  2  0  0  0  0  0  0
  -19.2680  -36.3580   -9.9690 N   0  0  0  0  0  2  0  0  0  0  0  0
  -19.0810  -39.5370  -11.7760 N   0  0  0  0  0  2  0  0  0  0  0  0
  -13.4600  -39.6310  -23.7060 N   0  0  0  0  0  2  0  0  0  0  0  0
  -15.4610  -41.7310  -28.6080 N   0  0  0  0  0  2  0  0  0  0  0  0
  -16.8580  -41.7450  -30.2440 N   0  0  0  0  0  2  0  0  0  0  0  0
  -19.1370  -33.5670   -3.3110 O   0  0  0  0  0  1  0  0  0  0  0  0
  -18.5650  -30.9180   -8.8540 O   0  0  0  0  0  1  0  0  0  0  0  0
  -18.7940  -27.0400   -6.8240 O   0  0  0  0  0  1  0  0  0  0  0  0
  -18.2430  -34.5490   -8.1800 O   0  0  0  0  0  1  0  0  0  0  0  0
  -16.8370  -26.1360   -5.5180 O   0  0  0  0  0  1  0  0  0  0  0  0
  -19.1370  -36.6720  -12.1740 O   0  0  0  0  0  1  0  0  0  0  0  0
  -21.2250  -39.3680  -11.2060 O   0  0  0  0  0  1  0  0  0  0  0  0
  -20.6840  -41.0710  -15.4540 O   0  0  0  0  0  0  0  0  0  0  0  0
  -19.1880  -40.4460  -17.9890 O   0  0  0  0  0  0  0  0  0  0  0  0
  -16.2870  -42.2020  -18.6990 O   0  0  0  0  0  0  0  0  0  0  0  0
  -13.9210  -41.2240  -20.5020 O   0  0  0  0  0  0  0  0  0  0  0  0
  -13.8070  -37.4260  -23.9970 O   0  0  0  0  0  1  0  0  0  0  0  0
  -17.1900  -43.2300  -28.5350 O   0  0  0  0  0  1  0  0  0  0  0  0
  -17.3450  -26.8420   -6.6980 S   0  0  0  0  0  4  0  0  0  0  0  0
  -15.6040  -38.3230  -30.0130 S   0  0  0  0  0  0  0  0  0  0  0  0
  1  2  1  0
  1 43  1  0
  2  3  1  0
  3 46  1  0
  3 53  1  0
  4  5  1  0
  4 45  1  0
  4 54  1  0
  5  6  1  0
  5 47  1  0
  6  7  1  0
  7  8  1  0
  7  9  1  0
 10 11  1  0
 10 47  1  0
 10 56  1  0
 11 12  1  0
 11 48  1  0
 12 13  1  0
 12 14  1  0
 12 15  1  0
 16 17  1  0
 16 48  1  0
 16 58  1  0
 17 18  1  0
 17 49  1  0
 18 19  1  0
 20 66  1  0
 21 22  1  0
 21 49  1  0
 21 59  1  0
 22 23  1  0
 23 60  1  0
 24 25  1  0
 24 60  1  0
 25 61  1  0
 26 28  1  0
 26 61  1  0
 27 34  1  0
 27 66  1  0
 28 62  1  0
 29 30  1  0
 29 62  1  0
 30 63  1  0
 31 32  1  0
 31 63  1  0
 32 50  1  0
 33 35  1  0
 33 50  1  0
 33 64  1  0
 34 43  1  0
 35 36  1  0
 36 37  1  0
 37 38  1  0
 38 39  1  0
 39 40  1  0
 39 67  1  0
 40 41  1  0
 40 51  1  0
 41 42  1  0
 41 52  1  0
 42 67  1  0
 43 45  1  0
 44 51  1  0
 44 52  1  0
 44 65  1  0
 55 66  1  0
 57 66  1  0
M  END
$$$$
