7aeh_A_R8H_405
     RDKit          3D

 36 39  0  0  0  0  0  0  0  0999 V2000
    7.8590   -4.1670   20.6880 C   0  0  0  0  0  3  0  0  0  0  0  0
    7.1550   -4.4240   21.9960 C   0  0  0  0  0  3  0  0  0  0  0  0
    6.0470   -1.4300   24.0600 C   0  0  0  0  0  3  0  0  0  0  0  0
    6.3200   -0.1260   23.3360 C   0  0  0  0  0  2  0  0  0  0  0  0
    5.7010    0.9420   24.2330 C   0  0  0  0  0  2  0  0  0  0  0  0
    4.9530    0.1970   25.3130 C   0  0  0  0  0  3  0  0  0  0  0  0
    4.8520   -2.1160   26.1980 C   0  0  0  0  0  2  0  0  0  0  0  0
    3.4250   -2.5770   26.0640 C   0  0  0  0  0  3  0  0  0  0  0  0
    2.3800   -1.7340   26.4100 C   0  0  0  0  0  2  0  0  0  0  0  0
    1.0660   -2.1590   26.2950 C   0  0  0  0  0  2  0  0  0  0  0  0
    0.7860   -3.4210   25.8320 C   0  0  0  0  0  2  0  0  0  0  0  0
    1.8120   -4.2700   25.4920 C   0  0  0  0  0  2  0  0  0  0  0  0
    7.5360   -5.7190   22.7210 C   0  0  0  0  0  2  0  0  0  0  0  0
    3.1310   -3.8510   25.6040 C   0  0  0  0  0  2  0  0  0  0  0  0
    7.2010   -3.0820   19.8700 C   0  0  0  0  0  3  0  0  0  0  0  0
    7.6300   -1.2610   18.3000 C   0  0  0  0  0  2  0  0  0  0  0  0
    6.6350   -0.1520   18.5280 C   0  0  0  0  0  3  0  0  0  0  0  0
    6.0130    0.0600   19.7410 C   0  0  0  0  0  2  0  0  0  0  0  0
    5.0840    1.0760   19.8430 C   0  0  0  0  0  2  0  0  0  0  0  0
    4.8280    1.8670   18.7580 C   0  0  0  0  0  2  0  0  0  0  0  0
    5.4780    1.5960   17.5870 C   0  0  0  0  0  2  0  0  0  0  0  0
    6.6660   -6.0750   23.9060 C   0  0  0  0  0  3  0  0  0  0  0  0
    7.0380   -5.7290   25.1960 C   0  0  0  0  0  2  0  0  0  0  0  0
    6.2490   -6.0920   26.2790 C   0  0  0  0  0  2  0  0  0  0  0  0
    5.0940   -6.8130   26.0830 C   0  0  0  0  0  2  0  0  0  0  0  0
    4.7240   -7.1790   24.8140 C   0  0  0  0  0  2  0  0  0  0  0  0
    5.5050   -6.8130   23.7290 C   0  0  0  0  0  2  0  0  0  0  0  0
    5.8680   -2.6270   23.1460 C   0  0  0  0  0  3  0  0  0  0  0  0
    6.9850   -3.3230   22.9310 N   0  0  0  0  0  2  0  0  0  0  0  0
    5.2380   -1.1190   25.2070 N   0  0  0  0  0  0  0  0  0  0  0  0
    7.9450   -2.0470   19.4840 N   0  0  0  0  0  2  0  0  0  0  0  0
    6.3880    0.6190   17.4630 N   0  0  0  0  0  2  0  0  0  0  0  0
    9.1400   -3.7350   21.0500 O   0  0  0  0  0  1  0  0  0  0  0  0
    4.8040   -2.8800   22.5880 O   0  0  0  0  0  1  0  0  0  0  0  0
    4.2350    0.7040   26.1710 O   0  0  0  0  0  1  0  0  0  0  0  0
    6.0430   -3.2300   19.5010 O   0  0  0  0  0  1  0  0  0  0  0  0
  1  2  1  0
  1 15  1  0
  1 33  1  0
  2 13  1  0
  2 29  1  0
  3  4  1  0
  3 28  1  0
  3 30  1  0
  4  5  1  0
  5  6  1  0
  6 30  1  0
  6 35  1  0
  7  8  1  0
  7 30  1  0
  8  9  1  0
  8 14  1  0
  9 10  1  0
 10 11  1  0
 11 12  1  0
 12 14  1  0
 13 22  1  0
 15 31  1  0
 15 36  1  0
 16 17  1  0
 16 31  1  0
 17 18  1  0
 17 32  1  0
 18 19  1  0
 19 20  1  0
 20 21  1  0
 21 32  1  0
 22 23  1  0
 22 27  1  0
 23 24  1  0
 24 25  1  0
 25 26  1  0
 26 27  1  0
 28 29  1  0
 28 34  1  0
M  END
$$$$
