7bfb_A_9JT_401
     RDKit          3D

 12 12  0  0  0  0  0  0  0  0999 V2000
   26.2860    3.8820  -31.1450 C   0  0  0  0  0  3  0  0  0  0  0  0
   26.0370    2.9650  -32.1570 C   0  0  0  0  0  3  0  0  0  0  0  0
   24.7290    2.6120  -32.4670 C   0  0  0  0  0  3  0  0  0  0  0  0
   23.6740    3.1800  -31.7590 C   0  0  0  0  0  3  0  0  0  0  0  0
   23.9280    4.0960  -30.7460 C   0  0  0  0  0  3  0  0  0  0  0  0
   25.2410    4.4490  -30.4390 C   0  0  0  0  0  3  0  0  0  0  0  0
   25.5040    5.4430  -29.3410 C   0  0  0  0  0  1  0  0  0  0  0  0
   23.1060    4.5360  -30.1940 H   0  0  0  0  0  0  0  0  0  0  0  0
   22.6540    2.9080  -31.9990 H   0  0  0  0  0  0  0  0  0  0  0  0
   24.5310    1.8970  -33.2560 H   0  0  0  0  0  0  0  0  0  0  0  0
   26.8610    2.5260  -32.7050 H   0  0  0  0  0  0  0  0  0  0  0  0
   28.1320    4.3620  -30.7330 Se  0  0  0  0  0  1  0  0  0  0  0  0
  1  2  1  0
  1  6  1  0
  1 12  1  0
  2  3  1  0
  2 11  1  0
  3  4  1  0
  3 10  1  0
  4  5  1  0
  4  9  1  0
  5  6  1  0
  5  8  1  0
  6  7  1  0
M  END
$$$$
