7bfb_B_9JT_1002
     RDKit          3D

 11 11  0  0  0  0  0  0  0  0999 V2000
   10.6090    4.0560    4.5930 C   0  0  0  0  0  3  0  0  0  0  0  0
   10.0170    4.3730    3.3750 C   0  0  0  0  0  3  0  0  0  0  0  0
    9.9250    5.7040    2.9720 C   0  0  0  0  0  3  0  0  0  0  0  0
   10.4260    6.7080    3.7950 C   0  0  0  0  0  3  0  0  0  0  0  0
   11.0160    6.3810    5.0110 C   0  0  0  0  0  3  0  0  0  0  0  0
   11.1060    5.0520    5.4090 C   0  0  0  0  0  2  0  0  0  0  0  0
   11.4060    7.1640    5.6510 H   0  0  0  0  0  0  0  0  0  0  0  0
   10.3580    7.7440    3.4880 H   0  0  0  0  0  0  0  0  0  0  0  0
    9.4650    5.9560    2.0250 H   0  0  0  0  0  0  0  0  0  0  0  0
    9.6290    3.5870    2.7390 H   0  0  0  0  0  0  0  0  0  0  0  0
   10.7350    2.1930    5.1570 Se  0  0  0  0  0  1  0  0  0  0  0  0
  1  2  1  0
  1  6  1  0
  1 11  1  0
  2  3  1  0
  2 10  1  0
  3  4  1  0
  3  9  1  0
  4  5  1  0
  4  8  1  0
  5  6  1  0
  5  7  1  0
M  END
$$$$
