7bgp_B_ALD_401
     RDKit          3D

 76 76  0  0  0  0  0  0  0  0999 V2000
  -24.9080   -6.8740   -4.9760 C   0  0  0  0  0  3  0  0  0  0  0  0
  -18.7200  -11.0030   -4.7880 C   0  0  0  0  0  0  0  0  0  0  0  0
  -17.4070  -10.9780   -4.0850 C   0  0  0  0  0  3  0  0  0  0  0  0
  -15.9840  -11.9830   -2.3950 C   0  0  0  0  0  0  0  0  0  0  0  0
  -15.0930  -12.8360   -3.2680 C   0  0  0  0  0  3  0  0  0  0  0  0
  -12.9260  -13.0310   -4.3810 C   0  0  0  0  0  0  0  0  0  0  0  0
  -12.4900  -12.0840   -5.5030 C   0  0  0  0  0  0  0  0  0  0  0  0
  -13.5190  -11.8530   -6.6060 C   0  0  0  0  0  0  0  0  0  0  0  0
  -23.6490   -6.5840   -4.4560 C   0  0  0  0  0  3  0  0  0  0  0  0
  -13.8940  -13.1730   -7.2720 C   0  0  0  0  0  0  0  0  0  0  0  0
  -12.9730  -10.8430   -7.6210 C   0  0  0  0  0  0  0  0  0  0  0  0
  -11.7180  -13.4840   -3.5460 C   0  0  0  0  0  3  0  0  0  0  0  0
  -16.1720  -12.5300   -0.9860 C   0  0  0  0  0  0  0  0  0  0  0  0
  -17.0380  -11.6150   -0.1290 C   0  0  0  0  0  0  0  0  0  0  0  0
  -16.5100  -10.1990    0.0530 C   0  0  0  0  0  0  0  0  0  0  0  0
  -17.2760  -12.2410    1.2530 C   0  0  0  0  0  0  0  0  0  0  0  0
  -22.8850   -7.5800   -3.8540 C   0  0  0  0  0  3  0  0  0  0  0  0
  -18.6020  -11.3920   -6.2590 C   0  0  0  0  0  0  0  0  0  0  0  0
  -18.0750  -12.7950   -6.5300 C   0  0  0  0  0  0  0  0  0  0  0  0
  -19.1380  -13.8520   -6.2850 C   0  0  0  0  0  0  0  0  0  0  0  0
  -17.5760  -12.8520   -7.9750 C   0  0  0  0  0  0  0  0  0  0  0  0
  -23.3920   -8.8730   -3.7660 C   0  0  0  0  0  3  0  0  0  0  0  0
  -24.6520   -9.1660   -4.2820 C   0  0  0  0  0  3  0  0  0  0  0  0
  -25.4120   -8.1680   -4.8860 C   0  0  0  0  0  3  0  0  0  0  0  0
  -21.5230   -7.2360   -3.2820 C   0  0  0  0  0  0  0  0  0  0  0  0
  -19.9190   -9.1030   -3.7840 C   0  0  0  0  0  3  0  0  0  0  0  0
  -25.4940   -6.0950   -5.4480 H   0  0  0  0  0  0  0  0  0  0  0  0
  -19.3320  -11.7540   -4.2690 H   0  0  0  0  0  0  0  0  0  0  0  0
  -15.4730  -11.0220   -2.2400 H   0  0  0  0  0  0  0  0  0  0  0  0
  -13.3880  -13.9140   -4.8450 H   0  0  0  0  0  0  0  0  0  0  0  0
  -11.5830  -12.4870   -5.9600 H   0  0  0  0  0  0  0  0  0  0  0  0
  -12.2410  -11.1180   -5.0590 H   0  0  0  0  0  0  0  0  0  0  0  0
  -14.4360  -11.4360   -6.1680 H   0  0  0  0  0  0  0  0  0  0  0  0
  -23.2610   -5.5750   -4.5190 H   0  0  0  0  0  0  0  0  0  0  0  0
  -13.2140  -13.9270   -6.9690 H   0  0  0  0  0  0  0  0  0  0  0  0
  -13.8530  -13.0620   -8.3240 H   0  0  0  0  0  0  0  0  0  0  0  0
  -14.8750  -13.4480   -6.9830 H   0  0  0  0  0  0  0  0  0  0  0  0
  -13.5800  -10.8490   -8.4880 H   0  0  0  0  0  0  0  0  0  0  0  0
  -11.9810  -11.1060   -7.8820 H   0  0  0  0  0  0  0  0  0  0  0  0
  -12.9790   -9.8740   -7.1930 H   0  0  0  0  0  0  0  0  0  0  0  0
  -12.0780  -14.0150   -2.6630 H   0  0  0  0  0  0  0  0  0  0  0  0
  -15.1950  -12.6470   -0.5120 H   0  0  0  0  0  0  0  0  0  0  0  0
  -16.6380  -13.5160   -1.0420 H   0  0  0  0  0  0  0  0  0  0  0  0
  -17.9760  -11.5180   -0.6930 H   0  0  0  0  0  0  0  0  0  0  0  0
  -17.1380   -9.5200   -0.4620 H   0  0  0  0  0  0  0  0  0  0  0  0
  -15.5270  -10.1360   -0.3370 H   0  0  0  0  0  0  0  0  0  0  0  0
  -16.4970   -9.9570    1.0840 H   0  0  0  0  0  0  0  0  0  0  0  0
  -18.3040  -12.1720    1.4990 H   0  0  0  0  0  0  0  0  0  0  0  0
  -16.7050  -11.7230    1.9790 H   0  0  0  0  0  0  0  0  0  0  0  0
  -16.9850  -13.2590    1.2350 H   0  0  0  0  0  0  0  0  0  0  0  0
  -17.9390  -10.6770   -6.7490 H   0  0  0  0  0  0  0  0  0  0  0  0
  -19.5900  -11.3030   -6.7160 H   0  0  0  0  0  0  0  0  0  0  0  0
  -17.2510  -13.0100   -5.8360 H   0  0  0  0  0  0  0  0  0  0  0  0
  -19.6310  -14.0740   -7.1950 H   0  0  0  0  0  0  0  0  0  0  0  0
  -19.8410  -13.4890   -5.5820 H   0  0  0  0  0  0  0  0  0  0  0  0
  -18.6810  -14.7300   -5.9070 H   0  0  0  0  0  0  0  0  0  0  0  0
  -16.5250  -12.7180   -7.9910 H   0  0  0  0  0  0  0  0  0  0  0  0
  -18.0380  -12.0840   -8.5390 H   0  0  0  0  0  0  0  0  0  0  0  0
  -17.8180  -13.7930   -8.3950 H   0  0  0  0  0  0  0  0  0  0  0  0
  -22.8060   -9.6530   -3.2960 H   0  0  0  0  0  0  0  0  0  0  0  0
  -25.0420  -10.1730   -4.2140 H   0  0  0  0  0  0  0  0  0  0  0  0
  -26.3920   -8.3980   -5.2850 H   0  0  0  0  0  0  0  0  0  0  0  0
  -21.4230   -6.1500   -3.2400 H   0  0  0  0  0  0  0  0  0  0  0  0
  -21.4630   -7.6180   -2.2610 H   0  0  0  0  0  0  0  0  0  0  0  0
  -19.1870   -9.1420   -5.6590 H   0  0  0  0  0  0  0  0  0  0  0  0
  -18.0840  -12.3070   -2.7090 H   0  0  0  0  0  0  0  0  0  0  0  0
  -13.5770  -11.4880   -3.0690 H   0  0  0  0  0  0  0  0  0  0  0  0
  -11.2840  -15.2340   -4.3620 H   0  0  0  0  0  0  0  0  0  0  0  0
  -19.2870   -9.6690   -4.8030 N   0  0  0  0  0  0  0  0  0  0  0  0
  -17.2830  -11.7980   -3.0550 N   0  0  0  0  0  0  0  0  0  0  0  0
  -13.8680  -12.3510   -3.5060 N   0  0  0  0  0  0  0  0  0  0  0  0
  -20.0730   -9.6140   -2.6840 O   0  0  0  0  0  1  0  0  0  0  0  0
  -16.5040  -10.2440   -4.4580 O   0  0  0  0  0  1  0  0  0  0  0  0
  -10.8720  -14.3610   -4.3020 O   0  0  0  0  0  0  0  0  0  0  0  0
  -15.4730  -13.9000   -3.7460 O   0  0  0  0  0  1  0  0  0  0  0  0
  -20.4380   -7.7690   -4.0360 O   0  0  0  0  0  0  0  0  0  0  0  0
  1  9  1  0
  1 24  1  0
  1 27  1  0
  2  3  1  0
  2 18  1  0
  2 28  1  0
  2 69  1  0
  3 70  1  0
  3 73  1  0
  4  5  1  0
  4 13  1  0
  4 29  1  0
  4 70  1  0
  5 71  1  0
  5 75  1  0
  6  7  1  0
  6 12  1  0
  6 30  1  0
  6 71  1  0
  7  8  1  0
  7 31  1  0
  7 32  1  0
  8 10  1  0
  8 11  1  0
  8 33  1  0
  9 17  1  0
  9 34  1  0
 10 35  1  0
 10 36  1  0
 10 37  1  0
 11 38  1  0
 11 39  1  0
 11 40  1  0
 12 41  1  0
 12 74  1  0
 13 14  1  0
 13 42  1  0
 13 43  1  0
 14 15  1  0
 14 16  1  0
 14 44  1  0
 15 45  1  0
 15 46  1  0
 15 47  1  0
 16 48  1  0
 16 49  1  0
 16 50  1  0
 17 22  1  0
 17 25  1  0
 18 19  1  0
 18 51  1  0
 18 52  1  0
 19 20  1  0
 19 21  1  0
 19 53  1  0
 20 54  1  0
 20 55  1  0
 20 56  1  0
 21 57  1  0
 21 58  1  0
 21 59  1  0
 22 23  1  0
 22 60  1  0
 23 24  1  0
 23 61  1  0
 24 62  1  0
 25 63  1  0
 25 64  1  0
 25 76  1  0
 26 69  1  0
 26 72  1  0
 26 76  1  0
 65 69  1  0
 66 70  1  0
 67 71  1  0
 68 74  1  0
M  END
$$$$
