7gay_A_KJO_1001
     RDKit          3D

 17 18  0  0  0  0  0  0  0  0999 V2000
    7.4330   -0.8320   22.0300 C   0  0  0  0  0  1  0  0  0  0  0  0
    8.0870   -0.2450   21.0350 C   0  0  0  0  0  3  0  0  0  0  0  0
    6.2130    0.9590   19.8950 C   0  0  0  0  0  2  0  0  0  0  0  0
    5.6130    1.4310   18.7460 C   0  0  0  0  0  2  0  0  0  0  0  0
    6.2120    1.1530   17.5340 C   0  0  0  0  0  2  0  0  0  0  0  0
    7.9090   -0.0020   18.5390 C   0  0  0  0  0  2  0  0  0  0  0  0
    9.5430    0.0080   21.1310 C   0  0  0  0  0  3  0  0  0  0  0  0
   11.6150   -0.8010   22.1410 C   0  0  0  0  0  3  0  0  0  0  0  0
   12.0200    0.3660   22.7780 C   0  0  0  0  0  2  0  0  0  0  0  0
   13.3690    0.6620   22.8840 C   0  0  0  0  0  2  0  0  0  0  0  0
   14.3100   -0.1990   22.3750 C   0  0  0  0  0  2  0  0  0  0  0  0
   13.9140   -1.3810   21.7860 C   0  0  0  0  0  2  0  0  0  0  0  0
   12.5700   -1.6930   21.6780 C   0  0  0  0  0  2  0  0  0  0  0  0
    7.3900    0.2290   19.8100 C   0  0  0  0  0  3  0  0  0  0  0  0
   10.2560   -0.9180   21.7890 N   0  0  0  0  0  2  0  0  0  0  0  0
    7.3420    0.4460   17.4160 N   0  0  0  0  0  2  0  0  0  0  0  0
   10.0510    1.0110   20.6440 O   0  0  0  0  0  1  0  0  0  0  0  0
  1  2  1  0
  2  7  1  0
  2 14  1  0
  3  4  1  0
  3 14  1  0
  4  5  1  0
  5 16  1  0
  6 14  1  0
  6 16  1  0
  7 15  1  0
  7 17  1  0
  8  9  1  0
  8 13  1  0
  8 15  1  0
  9 10  1  0
 10 11  1  0
 11 12  1  0
 12 13  1  0
M  END
$$$$
