7gaz_A_KL6_1001
     RDKit          3D

 21 22  0  0  0  0  0  0  0  0999 V2000
    6.6710    1.2280   23.8830 C   0  0  0  0  0  1  0  0  0  0  0  0
    9.5220   -0.7280   25.0940 C   0  0  0  0  0  2  0  0  0  0  0  0
   11.3810    2.2880   23.5250 C   0  0  0  0  0  2  0  0  0  0  0  0
   12.0200    1.0970   23.1820 C   0  0  0  0  0  3  0  0  0  0  0  0
    9.9420   -0.2200   23.7270 C   0  0  0  0  0  2  0  0  0  0  0  0
   12.0400   -1.4200   23.2100 C   0  0  0  0  0  2  0  0  0  0  0  0
   12.9000   -1.2980   21.9640 C   0  0  0  0  0  2  0  0  0  0  0  0
   13.9020   -0.1720   22.1130 C   0  0  0  0  0  2  0  0  0  0  0  0
   13.2140    1.1260   22.4510 C   0  0  0  0  0  3  0  0  0  0  0  0
   13.7350    2.3560   22.0550 C   0  0  0  0  0  2  0  0  0  0  0  0
   13.1010    3.5390   22.3840 C   0  0  0  0  0  2  0  0  0  0  0  0
   11.9310    3.4960   23.1230 C   0  0  0  0  0  3  0  0  0  0  0  0
    8.0560   -0.7130   25.1960 N   0  0  0  0  0  2  0  0  0  0  0  0
   11.3970   -0.1510   23.5620 N   0  0  0  0  0  0  0  0  0  0  0  0
    9.9260    5.2810   22.5910 N   0  0  0  0  0  1  0  0  0  0  0  0
    8.2490    1.6290   25.8890 O   0  0  0  0  0  1  0  0  0  0  0  0
    6.1520    0.4010   26.2750 O   0  0  0  0  0  1  0  0  0  0  0  0
   10.5750    4.7880   24.8990 O   0  0  0  0  0  1  0  0  0  0  0  0
   12.0890    6.0580   23.4250 O   0  0  0  0  0  1  0  0  0  0  0  0
    7.2750    0.6860   25.4360 S   0  0  0  0  0  4  0  0  0  0  0  0
   11.1390    5.0000   23.6000 S   0  0  0  0  0  4  0  0  0  0  0  0
  1 20  1  0
  2  5  1  0
  2 13  1  0
  3  4  1  0
  3 12  1  0
  4  9  1  0
  4 14  1  0
  5 14  1  0
  6  7  1  0
  6 14  1  0
  7  8  1  0
  8  9  1  0
  9 10  1  0
 10 11  1  0
 11 12  1  0
 12 21  1  0
 13 20  1  0
 15 21  1  0
 16 20  1  0
 17 20  1  0
 18 21  1  0
 19 21  1  0
M  END
$$$$
