7gb2_A_KMX_406
     RDKit          3D

 22 24  0  0  0  0  0  0  0  0999 V2000
    7.2100   -2.6460   19.1270 C   0  0  0  0  0  1  0  0  0  0  0  0
    6.6960   -3.7260   20.0250 C   0  0  0  0  0  3  0  0  0  0  0  0
    3.3680   -4.3320   30.8170 C   0  0  0  0  0  2  0  0  0  0  0  0
    3.5770   -3.8190   32.0860 C   0  0  0  0  0  2  0  0  0  0  0  0
    3.2870   -2.5000   32.3570 C   0  0  0  0  0  2  0  0  0  0  0  0
    2.7890   -1.6930   31.3590 C   0  0  0  0  0  2  0  0  0  0  0  0
    2.5830   -2.2030   30.0870 C   0  0  0  0  0  2  0  0  0  0  0  0
    5.6690   -3.5740   23.2790 C   0  0  0  0  0  2  0  0  0  0  0  0
    6.3670   -4.5190   22.3210 C   0  0  0  0  0  2  0  0  0  0  0  0
    8.1080   -2.8790   21.9520 C   0  0  0  0  0  2  0  0  0  0  0  0
    7.4310   -1.9260   22.9250 C   0  0  0  0  0  2  0  0  0  0  0  0
    5.9580   -1.7390   24.8230 C   0  0  0  0  0  2  0  0  0  0  0  0
    5.3080   -2.5260   25.9180 C   0  0  0  0  0  3  0  0  0  0  0  0
    5.9050   -3.2950   26.8510 C   0  0  0  0  0  2  0  0  0  0  0  0
    3.8580   -3.6430   27.5090 C   0  0  0  0  0  3  0  0  0  0  0  0
    2.7230   -4.0650   28.3940 C   0  0  0  0  0  2  0  0  0  0  0  0
    2.8750   -3.5280   29.7990 C   0  0  0  0  0  3  0  0  0  0  0  0
    7.0950   -3.7340   21.3230 N   0  0  0  0  0  0  0  0  0  0  0  0
    6.6440   -2.6680   23.9300 N   0  0  0  0  0  0  0  0  0  0  0  0
    5.0960   -3.9340   27.7450 N   0  0  0  0  0  2  0  0  0  0  0  0
    5.8890   -4.5400   19.6170 O   0  0  0  0  0  1  0  0  0  0  0  0
    3.5880   -2.5930   26.1490 S   0  0  0  0  0  0  0  0  0  0  0  0
  1  2  1  0
  2 18  1  0
  2 21  1  0
  3  4  1  0
  3 17  1  0
  4  5  1  0
  5  6  1  0
  6  7  1  0
  7 17  1  0
  8  9  1  0
  8 19  1  0
  9 18  1  0
 10 11  1  0
 10 18  1  0
 11 19  1  0
 12 13  1  0
 12 19  1  0
 13 14  1  0
 13 22  1  0
 14 20  1  0
 15 16  1  0
 15 20  1  0
 15 22  1  0
 16 17  1  0
M  END
$$$$
