7gb3_A_KNU_406
     RDKit          3D

 14 14  0  0  0  0  0  0  0  0999 V2000
    8.6880   -2.7340   23.7940 C   0  0  0  0  0  1  0  0  0  0  0  0
    9.0810   -1.8500   22.6160 C   0  0  0  0  0  3  0  0  0  0  0  0
   10.4990   -1.3270   22.7610 C   0  0  0  0  0  3  0  0  0  0  0  0
   11.5220   -1.8460   21.9740 C   0  0  0  0  0  2  0  0  0  0  0  0
   12.7810   -1.2830   22.0280 C   0  0  0  0  0  3  0  0  0  0  0  0
   13.0710   -0.2330   22.8730 C   0  0  0  0  0  2  0  0  0  0  0  0
   12.0550    0.2250   23.6710 C   0  0  0  0  0  3  0  0  0  0  0  0
   10.7810   -0.2800   23.6340 C   0  0  0  0  0  2  0  0  0  0  0  0
    8.3680   -2.0380   20.2760 C   0  0  0  0  0  3  0  0  0  0  0  0
    8.1660   -2.9470   19.0910 C   0  0  0  0  0  1  0  0  0  0  0  0
   14.0260   -1.8990   20.9800 Cl  0  0  0  0  0  0  0  0  0  0  0  0
   12.3370    1.1910   24.5840 F   0  0  0  0  0  0  0  0  0  0  0  0
    8.9000   -2.6030   21.3710 N   0  0  0  0  0  2  0  0  0  0  0  0
    8.0680   -0.8500   20.2390 O   0  0  0  0  0  1  0  0  0  0  0  0
  1  2  1  0
  2  3  1  0
  2 13  1  0
  3  4  1  0
  3  8  1  0
  4  5  1  0
  5  6  1  0
  5 11  1  0
  6  7  1  0
  7  8  1  0
  7 12  1  0
  9 10  1  0
  9 13  1  0
  9 14  1  0
M  END
$$$$
