7gb6_A_KP0_405
     RDKit          3D

 25 27  0  0  0  0  0  0  0  0999 V2000
   13.7550   -0.8700   21.5810 C   0  0  0  0  0  3  0  0  0  0  0  0
   14.1810    0.0560   22.5080 C   0  0  0  0  0  2  0  0  0  0  0  0
   10.0560   -5.6010   26.0580 C   0  0  0  0  0  2  0  0  0  0  0  0
    8.6410   -5.4820   26.6150 C   0  0  0  0  0  2  0  0  0  0  0  0
    8.1570   -4.0370   26.5640 C   0  0  0  0  0  2  0  0  0  0  0  0
    8.2600   -3.4590   25.1510 C   0  0  0  0  0  2  0  0  0  0  0  0
    9.4530   -0.1150   20.9840 C   0  0  0  0  0  3  0  0  0  0  0  0
    7.4150    0.0400   19.6520 C   0  0  0  0  0  3  0  0  0  0  0  0
    6.2570    0.7560   19.9310 C   0  0  0  0  0  2  0  0  0  0  0  0
    5.6030    1.4130   18.9050 C   0  0  0  0  0  2  0  0  0  0  0  0
    6.1290    1.3290   17.6250 C   0  0  0  0  0  2  0  0  0  0  0  0
    7.8520   -0.0010   18.3260 C   0  0  0  0  0  2  0  0  0  0  0  0
   13.2500    0.6140   23.3700 C   0  0  0  0  0  2  0  0  0  0  0  0
   11.9090    0.2720   23.2790 C   0  0  0  0  0  2  0  0  0  0  0  0
   11.4930   -0.6270   22.3050 C   0  0  0  0  0  3  0  0  0  0  0  0
   12.4280   -1.2340   21.4680 C   0  0  0  0  0  2  0  0  0  0  0  0
    9.3160   -1.5570   23.0280 C   0  0  0  0  0  2  0  0  0  0  0  0
    9.7690   -3.0050   23.1450 C   0  0  0  0  0  2  0  0  0  0  0  0
    9.6800   -3.5590   24.5780 C   0  0  0  0  0  3  0  0  0  0  0  0
   10.1550   -5.0140   24.6470 C   0  0  0  0  0  2  0  0  0  0  0  0
   14.9190   -1.5870   20.4990 Cl  0  0  0  0  0  0  0  0  0  0  0  0
   10.1020   -0.7880   22.0470 N   0  0  0  0  0  0  0  0  0  0  0  0
    8.2020   -0.5390   20.6730 N   0  0  0  0  0  2  0  0  0  0  0  0
    7.2360    0.6350   17.3260 N   0  0  0  0  0  2  0  0  0  0  0  0
   10.0150    0.8110   20.4120 O   0  0  0  0  0  1  0  0  0  0  0  0
  1  2  1  0
  1 16  1  0
  1 21  1  0
  2 13  1  0
  3  4  1  0
  3 20  1  0
  4  5  1  0
  5  6  1  0
  6 19  1  0
  7 22  1  0
  7 23  1  0
  7 25  1  0
  8  9  1  0
  8 12  1  0
  8 23  1  0
  9 10  1  0
 10 11  1  0
 11 24  1  0
 12 24  1  0
 13 14  1  0
 14 15  1  0
 15 16  1  0
 15 22  1  0
 17 18  1  0
 17 22  1  0
 18 19  1  0
 19 20  1  0
M  END
$$$$
