7gb9_A_KQX_405
     RDKit          3D

 18 19  0  0  0  0  0  0  0  0999 V2000
   14.6240   -0.2790   22.8680 C   0  0  0  0  0  1  0  0  0  0  0  0
   13.2000   -0.7500   22.8400 C   0  0  0  0  0  3  0  0  0  0  0  0
    5.4990    1.3950   18.6560 C   0  0  0  0  0  2  0  0  0  0  0  0
    6.0680    0.7160   19.7210 C   0  0  0  0  0  3  0  0  0  0  0  0
    5.5820    0.9510   21.1290 C   0  0  0  0  0  1  0  0  0  0  0  0
   10.9510   -0.6500   23.6880 C   0  0  0  0  0  2  0  0  0  0  0  0
   12.2850   -0.3070   23.7790 C   0  0  0  0  0  2  0  0  0  0  0  0
   12.7500   -1.5960   21.8420 C   0  0  0  0  0  2  0  0  0  0  0  0
   11.4200   -1.9520   21.7570 C   0  0  0  0  0  2  0  0  0  0  0  0
   10.4930   -1.4470   22.6520 C   0  0  0  0  0  3  0  0  0  0  0  0
    9.0270   -1.5180   22.3360 C   0  0  0  0  0  2  0  0  0  0  0  0
    8.7880   -0.5950   21.1580 C   0  0  0  0  0  3  0  0  0  0  0  0
    7.1490   -0.1290   19.4390 C   0  0  0  0  0  3  0  0  0  0  0  0
    7.6380   -0.1950   18.1420 C   0  0  0  0  0  2  0  0  0  0  0  0
    6.0420    1.2600   17.3970 C   0  0  0  0  0  2  0  0  0  0  0  0
    7.7010   -0.9190   20.4560 N   0  0  0  0  0  2  0  0  0  0  0  0
    7.1040    0.4930   17.1300 N   0  0  0  0  0  2  0  0  0  0  0  0
    9.5160    0.3770   20.9040 O   0  0  0  0  0  1  0  0  0  0  0  0
  1  2  1  0
  2  7  1  0
  2  8  1  0
  3  4  1  0
  3 15  1  0
  4  5  1  0
  4 13  1  0
  6  7  1  0
  6 10  1  0
  8  9  1  0
  9 10  1  0
 10 11  1  0
 11 12  1  0
 12 16  1  0
 12 18  1  0
 13 14  1  0
 13 16  1  0
 14 17  1  0
 15 17  1  0
M  END
$$$$
