7gbb_A_KSI_1001
     RDKit          3D

 21 22  0  0  0  0  0  0  0  0999 V2000
    6.6960   -5.7930   24.9300 C   0  0  0  0  0  1  0  0  0  0  0  0
    6.9110   -5.1340   23.5780 C   0  0  0  0  0  3  0  0  0  0  0  0
   11.7280   -0.5150   24.0490 C   0  0  0  0  0  2  0  0  0  0  0  0
   12.7650    0.3880   23.8800 C   0  0  0  0  0  2  0  0  0  0  0  0
   13.7100    0.1910   22.8850 C   0  0  0  0  0  2  0  0  0  0  0  0
   13.6020   -0.9250   22.0850 C   0  0  0  0  0  3  0  0  0  0  0  0
   12.5780   -1.8360   22.2440 C   0  0  0  0  0  2  0  0  0  0  0  0
    7.1270   -2.8220   19.1780 C   0  0  0  0  0  3  0  0  0  0  0  0
    8.0780   -2.6860   18.0110 C   0  0  0  0  0  1  0  0  0  0  0  0
    7.3190   -6.1790   22.5320 C   0  0  0  0  0  1  0  0  0  0  0  0
    7.9150   -3.9820   23.6970 C   0  0  0  0  0  2  0  0  0  0  0  0
    8.2920   -3.2880   22.3870 C   0  0  0  0  0  3  0  0  0  0  0  0
    7.0860   -2.7690   21.6230 C   0  0  0  0  0  2  0  0  0  0  0  0
    8.4860   -1.1520   20.4470 C   0  0  0  0  0  2  0  0  0  0  0  0
    9.6750   -1.5870   21.2810 C   0  0  0  0  0  2  0  0  0  0  0  0
   10.4440   -2.5740   23.3580 C   0  0  0  0  0  2  0  0  0  0  0  0
   11.6140   -1.6260   23.2260 C   0  0  0  0  0  3  0  0  0  0  0  0
   14.8030   -1.2160   20.8560 Cl  0  0  0  0  0  0  0  0  0  0  0  0
    7.5360   -2.2600   20.3300 N   0  0  0  0  0  0  0  0  0  0  0  0
    9.2640   -2.1790   22.5720 N   0  0  0  0  0  0  0  0  0  0  0  0
    6.0410   -3.3400   19.0800 O   0  0  0  0  0  1  0  0  0  0  0  0
  1  2  1  0
  2 10  1  0
  2 11  1  0
  3  4  1  0
  3 17  1  0
  4  5  1  0
  5  6  1  0
  6  7  1  0
  6 18  1  0
  7 17  1  0
  8  9  1  0
  8 19  1  0
  8 21  1  0
 11 12  1  0
 12 13  1  0
 12 20  1  0
 13 19  1  0
 14 15  1  0
 14 19  1  0
 15 20  1  0
 16 17  1  0
 16 20  1  0
M  END
$$$$
