7gbc_A_KSX_404
     RDKit          3D

 19 20  0  0  0  0  0  0  0  0999 V2000
    5.5230    1.0390   21.2300 C   0  0  0  0  0  1  0  0  0  0  0  0
    6.1930    0.7580   19.9090 C   0  0  0  0  0  3  0  0  0  0  0  0
   14.1260   -0.1340   22.6710 C   0  0  0  0  0  2  0  0  0  0  0  0
   13.6960   -0.9370   21.6150 C   0  0  0  0  0  3  0  0  0  0  0  0
   14.6070   -1.4300   20.6150 C   0  0  0  0  0  2  0  0  0  0  0  0
   12.3480   -1.2750   21.5560 C   0  0  0  0  0  2  0  0  0  0  0  0
    5.5740    1.1050   18.7130 C   0  0  0  0  0  2  0  0  0  0  0  0
    6.2490    0.9370   17.5200 C   0  0  0  0  0  2  0  0  0  0  0  0
    8.0870    0.1000   18.5810 C   0  0  0  0  0  2  0  0  0  0  0  0
    7.5060    0.2880   19.8400 C   0  0  0  0  0  3  0  0  0  0  0  0
    9.4980   -0.1480   21.1740 C   0  0  0  0  0  3  0  0  0  0  0  0
    9.9760   -0.9530   22.3670 C   0  0  0  0  0  2  0  0  0  0  0  0
   11.4710   -0.7860   22.5180 C   0  0  0  0  0  3  0  0  0  0  0  0
   12.0110   -0.0190   23.5400 C   0  0  0  0  0  2  0  0  0  0  0  0
    7.4800    0.4210   17.4350 N   0  0  0  0  0  2  0  0  0  0  0  0
    8.1770   -0.0240   21.0440 N   0  0  0  0  0  2  0  0  0  0  0  0
   13.3090    0.3090   23.6350 N   0  0  0  0  0  2  0  0  0  0  0  0
   15.3020   -1.8430   19.8100 N   0  0  0  0  0  1  0  0  0  0  0  0
   10.2750    0.5070   20.4940 O   0  0  0  0  0  1  0  0  0  0  0  0
  1  2  1  0
  2  7  1  0
  2 10  1  0
  3  4  1  0
  3 17  1  0
  4  5  1  0
  4  6  1  0
  5 18  1  0
  6 13  1  0
  7  8  1  0
  8 15  1  0
  9 10  1  0
  9 15  1  0
 10 16  1  0
 11 12  1  0
 11 16  1  0
 11 19  1  0
 12 13  1  0
 13 14  1  0
 14 17  1  0
M  END
$$$$
