7gbd_A_KT9_404
     RDKit          3D

 23 25  0  0  0  0  0  0  0  0999 V2000
   14.5310   -2.1560   22.6820 C   0  0  0  0  0  1  0  0  0  0  0  0
   13.5240   -1.0390   22.5430 C   0  0  0  0  0  3  0  0  0  0  0  0
   11.6440    1.0230   22.3170 C   0  0  0  0  0  2  0  0  0  0  0  0
   12.9490    1.2920   22.6880 C   0  0  0  0  0  3  0  0  0  0  0  0
   12.8120    3.7290   22.6070 C   0  0  0  0  0  3  0  0  0  0  0  0
   13.6880    4.8450   23.1960 C   0  0  0  0  0  2  0  0  0  0  0  0
   13.8820    5.2710   21.7490 C   0  0  0  0  0  3  0  0  0  0  0  0
   13.8860    0.2770   22.8010 C   0  0  0  0  0  2  0  0  0  0  0  0
   12.2150   -1.3080   22.1640 C   0  0  0  0  0  2  0  0  0  0  0  0
   11.2740   -0.2900   22.0510 C   0  0  0  0  0  3  0  0  0  0  0  0
    9.0850    0.1110   20.9370 C   0  0  0  0  0  3  0  0  0  0  0  0
    7.7930   -0.6120   20.6060 C   0  0  0  0  0  2  0  0  0  0  0  0
    6.9920    0.0010   19.4790 C   0  0  0  0  0  3  0  0  0  0  0  0
    5.9370    0.8620   19.7260 C   0  0  0  0  0  2  0  0  0  0  0  0
    5.8820    1.4920   17.5560 C   0  0  0  0  0  2  0  0  0  0  0  0
    7.4480   -0.0200   18.1730 C   0  0  0  0  0  2  0  0  0  0  0  0
    9.9530   -0.6200   21.6700 N   0  0  0  0  0  2  0  0  0  0  0  0
    5.3610    1.6140   18.7810 N   0  0  0  0  0  2  0  0  0  0  0  0
    6.9130    0.7220   17.1970 N   0  0  0  0  0  2  0  0  0  0  0  0
   13.2050    4.2050   21.2800 N   0  0  0  0  0  2  0  0  0  0  0  0
    9.3020    1.2600   20.5650 O   0  0  0  0  0  1  0  0  0  0  0  0
   13.4770    2.5230   23.0120 O   0  0  0  0  0  0  0  0  0  0  0  0
   14.4300    6.2130   21.1760 O   0  0  0  0  0  1  0  0  0  0  0  0
  1  2  1  0
  2  8  1  0
  2  9  1  0
  3  4  1  0
  3 10  1  0
  4  8  1  0
  4 22  1  0
  5  6  1  0
  5 20  1  0
  5 22  1  0
  6  7  1  0
  7 20  1  0
  7 23  1  0
  9 10  1  0
 10 17  1  0
 11 12  1  0
 11 17  1  0
 11 21  1  0
 12 13  1  0
 13 14  1  0
 13 16  1  0
 14 18  1  0
 15 18  1  0
 15 19  1  0
 16 19  1  0
M  END
$$$$
