7gbf_A_KUU_405
     RDKit          3D

 21 22  0  0  0  0  0  0  0  0999 V2000
    7.1690   -0.6660   24.1060 C   0  0  0  0  0  1  0  0  0  0  0  0
    8.6800   -0.4630   24.1140 C   0  0  0  0  0  3  0  0  0  0  0  0
    5.1360    1.0780   21.4840 C   0  0  0  0  0  1  0  0  0  0  0  0
   10.7900   -0.2120   22.6260 C   0  0  0  0  0  3  0  0  0  0  0  0
   11.2830    1.0020   23.0940 C   0  0  0  0  0  2  0  0  0  0  0  0
   12.6340    1.3040   22.9970 C   0  0  0  0  0  2  0  0  0  0  0  0
   13.5120    0.3940   22.4310 C   0  0  0  0  0  2  0  0  0  0  0  0
   13.0130   -0.8040   21.9640 C   0  0  0  0  0  3  0  0  0  0  0  0
   11.6730   -1.1190   22.0540 C   0  0  0  0  0  2  0  0  0  0  0  0
    9.0350    0.8230   24.8370 C   0  0  0  0  0  1  0  0  0  0  0  0
    9.3070   -0.5480   22.6800 C   0  0  0  0  0  3  0  0  0  0  0  0
    8.5650    0.2710   21.6230 C   0  0  0  0  0  3  0  0  0  0  0  0
    6.8770    0.1450   19.8630 C   0  0  0  0  0  3  0  0  0  0  0  0
    7.3350    0.0180   18.5510 C   0  0  0  0  0  2  0  0  0  0  0  0
    5.6260    1.3000   17.7400 C   0  0  0  0  0  2  0  0  0  0  0  0
    5.0850    1.4760   18.9980 C   0  0  0  0  0  2  0  0  0  0  0  0
    5.7040    0.8950   20.1000 C   0  0  0  0  0  3  0  0  0  0  0  0
   14.1000   -1.9640   21.2660 Cl  0  0  0  0  0  0  0  0  0  0  0  0
    7.6030   -0.3960   20.9520 N   0  0  0  0  0  2  0  0  0  0  0  0
    6.7290    0.5850   17.5010 N   0  0  0  0  0  2  0  0  0  0  0  0
    8.8940    1.4210   21.3510 O   0  0  0  0  0  1  0  0  0  0  0  0
  1  2  1  0
  2 10  1  0
  2 11  1  0
  3 17  1  0
  4  5  1  0
  4  9  1  0
  4 11  1  0
  5  6  1  0
  6  7  1  0
  7  8  1  0
  8  9  1  0
  8 18  1  0
 11 12  1  0
 12 19  1  0
 12 21  1  0
 13 14  1  0
 13 17  1  0
 13 19  1  0
 14 20  1  0
 15 16  1  0
 15 20  1  0
 16 17  1  0
M  END
$$$$
