7gbk_A_KXF_1001
     RDKit          3D

 18 19  0  0  0  0  0  0  0  0999 V2000
    5.9990    0.7910   21.3980 C   0  0  0  0  0  1  0  0  0  0  0  0
    6.4240    0.6460   19.9590 C   0  0  0  0  0  3  0  0  0  0  0  0
   13.9450   -0.9260   21.9060 C   0  0  0  0  0  2  0  0  0  0  0  0
   14.1060   -0.1520   23.0440 C   0  0  0  0  0  2  0  0  0  0  0  0
   12.9960    0.1560   23.8180 C   0  0  0  0  0  3  0  0  0  0  0  0
   11.7360   -0.2800   23.4420 C   0  0  0  0  0  2  0  0  0  0  0  0
    5.7280    1.2970   18.9480 C   0  0  0  0  0  2  0  0  0  0  0  0
    6.1660    1.1950   17.6430 C   0  0  0  0  0  2  0  0  0  0  0  0
    7.9260   -0.1330   18.2410 C   0  0  0  0  0  2  0  0  0  0  0  0
    7.5550   -0.1010   19.5860 C   0  0  0  0  0  3  0  0  0  0  0  0
    9.5550   -0.4710   20.9520 C   0  0  0  0  0  3  0  0  0  0  0  0
   10.1900   -1.4910   21.8740 C   0  0  0  0  0  2  0  0  0  0  0  0
   11.5700   -1.0490   22.2970 C   0  0  0  0  0  3  0  0  0  0  0  0
   12.6870   -1.3760   21.5420 C   0  0  0  0  0  2  0  0  0  0  0  0
    7.2520    0.5040   17.2790 N   0  0  0  0  0  2  0  0  0  0  0  0
    8.3020   -0.7840   20.5670 N   0  0  0  0  0  2  0  0  0  0  0  0
   10.1490    0.5480   20.6030 O   0  0  0  0  0  1  0  0  0  0  0  0
   13.1240    0.8660   24.9700 O   0  0  0  0  0  1  0  0  0  0  0  0
  1  2  1  0
  2  7  1  0
  2 10  1  0
  3  4  1  0
  3 14  1  0
  4  5  1  0
  5  6  1  0
  5 18  1  0
  6 13  1  0
  7  8  1  0
  8 15  1  0
  9 10  1  0
  9 15  1  0
 10 16  1  0
 11 12  1  0
 11 16  1  0
 11 17  1  0
 12 13  1  0
 13 14  1  0
M  END
$$$$
