7gbl_A_KWR_405
     RDKit          3D

 22 24  0  0  0  0  0  0  0  0999 V2000
    8.9830    0.1950   21.1620 C   0  0  0  0  0  3  0  0  0  0  0  0
    7.6840   -0.4950   20.7920 C   0  0  0  0  0  2  0  0  0  0  0  0
   13.8350    0.3920   22.7200 C   0  0  0  0  0  2  0  0  0  0  0  0
   12.8060    1.2910   22.9550 C   0  0  0  0  0  3  0  0  0  0  0  0
   12.5480    3.6290   22.7240 C   0  0  0  0  0  3  0  0  0  0  0  0
   12.9040    4.9290   23.4520 C   0  0  0  0  0  2  0  0  0  0  0  0
   13.5310    5.3370   22.1280 C   0  0  0  0  0  3  0  0  0  0  0  0
   11.4890    0.9510   22.6860 C   0  0  0  0  0  2  0  0  0  0  0  0
    6.9160    0.2370   19.7160 C   0  0  0  0  0  3  0  0  0  0  0  0
    5.8060    1.0180   20.0140 C   0  0  0  0  0  2  0  0  0  0  0  0
    5.1420    1.6900   19.0030 C   0  0  0  0  0  2  0  0  0  0  0  0
    5.6130    1.5530   17.7100 C   0  0  0  0  0  2  0  0  0  0  0  0
    7.3080    0.1680   18.3890 C   0  0  0  0  0  2  0  0  0  0  0  0
   11.2000   -0.3050   22.1650 C   0  0  0  0  0  3  0  0  0  0  0  0
   12.2220   -1.2200   21.9470 C   0  0  0  0  0  2  0  0  0  0  0  0
   13.5350   -0.8650   22.2150 C   0  0  0  0  0  2  0  0  0  0  0  0
    6.6830    0.8060   17.3900 N   0  0  0  0  0  2  0  0  0  0  0  0
    9.8740   -0.6080   21.7850 N   0  0  0  0  0  2  0  0  0  0  0  0
   13.4520    4.0840   21.6370 N   0  0  0  0  0  2  0  0  0  0  0  0
    9.1880    1.3790   20.8980 O   0  0  0  0  0  1  0  0  0  0  0  0
   13.0930    2.5330   23.4830 O   0  0  0  0  0  0  0  0  0  0  0  0
   13.9260    6.3920   21.6280 O   0  0  0  0  0  1  0  0  0  0  0  0
  1  2  1  0
  1 18  1  0
  1 20  1  0
  2  9  1  0
  3  4  1  0
  3 16  1  0
  4  8  1  0
  4 21  1  0
  5  6  1  0
  5 19  1  0
  5 21  1  0
  6  7  1  0
  7 19  1  0
  7 22  1  0
  8 14  1  0
  9 10  1  0
  9 13  1  0
 10 11  1  0
 11 12  1  0
 12 17  1  0
 13 17  1  0
 14 15  1  0
 14 18  1  0
 15 16  1  0
M  END
$$$$
