7gbm_A_KX9_404
     RDKit          3D

 23 25  0  0  0  0  0  0  0  0999 V2000
    9.1660   -1.4980   23.3680 C   0  0  0  0  0  1  0  0  0  0  0  0
    9.9020   -1.3450   22.0320 C   0  0  0  0  0  3  0  0  0  0  0  0
    4.4820    1.4070   22.9120 C   0  0  0  0  0  2  0  0  0  0  0  0
   11.3590   -0.9440   22.2360 C   0  0  0  0  0  3  0  0  0  0  0  0
   11.7050    0.0240   23.1720 C   0  0  0  0  0  2  0  0  0  0  0  0
   13.0060    0.4970   23.2520 C   0  0  0  0  0  2  0  0  0  0  0  0
   13.9840   -0.0010   22.4080 C   0  0  0  0  0  2  0  0  0  0  0  0
   13.6410   -0.9910   21.5090 C   0  0  0  0  0  3  0  0  0  0  0  0
   12.3500   -1.4710   21.4160 C   0  0  0  0  0  2  0  0  0  0  0  0
    9.2710   -0.3220   21.0810 C   0  0  0  0  0  3  0  0  0  0  0  0
    7.3230    0.0380   19.5940 C   0  0  0  0  0  3  0  0  0  0  0  0
    7.6660   -0.0410   18.2480 C   0  0  0  0  0  2  0  0  0  0  0  0
    5.9370    1.3310   17.6480 C   0  0  0  0  0  2  0  0  0  0  0  0
    5.5080    1.4870   18.9530 C   0  0  0  0  0  2  0  0  0  0  0  0
    6.2190    0.8320   19.9490 C   0  0  0  0  0  3  0  0  0  0  0  0
    6.5970    1.1700   22.4030 C   0  0  0  0  0  2  0  0  0  0  0  0
    5.7650    1.4320   23.4540 C   0  0  0  0  0  2  0  0  0  0  0  0
   14.8620   -1.6510   20.4610 Cl  0  0  0  0  0  0  0  0  0  0  0  0
    8.0640   -0.6770   20.5650 N   0  0  0  0  0  2  0  0  0  0  0  0
    6.9910    0.5920   17.2850 N   0  0  0  0  0  2  0  0  0  0  0  0
    5.8100    1.0130   21.3070 N   0  0  0  0  0  0  0  0  0  0  0  0
    4.4880    1.1500   21.6100 N   0  0  0  0  0  2  0  0  0  0  0  0
    9.8440    0.7260   20.7890 O   0  0  0  0  0  1  0  0  0  0  0  0
  1  2  1  0
  2  4  1  0
  2 10  1  0
  3 17  1  0
  3 22  1  0
  4  5  1  0
  4  9  1  0
  5  6  1  0
  6  7  1  0
  7  8  1  0
  8  9  1  0
  8 18  1  0
 10 19  1  0
 10 23  1  0
 11 12  1  0
 11 15  1  0
 11 19  1  0
 12 20  1  0
 13 14  1  0
 13 20  1  0
 14 15  1  0
 15 21  1  0
 16 17  1  0
 16 21  1  0
 21 22  1  0
M  END
$$$$
