7gbo_A_KY0_404
     RDKit          3D

 20 22  0  0  0  0  0  0  0  0999 V2000
    5.6710    0.6570   21.5550 C   0  0  0  0  0  1  0  0  0  0  0  0
    6.1590    0.6120   20.1300 C   0  0  0  0  0  3  0  0  0  0  0  0
   11.2390   -0.7550   22.7090 C   0  0  0  0  0  3  0  0  0  0  0  0
   11.6110    0.2290   23.6190 C   0  0  0  0  0  2  0  0  0  0  0  0
   12.8900    0.7590   23.6020 C   0  0  0  0  0  2  0  0  0  0  0  0
   13.8300    0.2840   22.7000 C   0  0  0  0  0  2  0  0  0  0  0  0
   13.4710   -0.7410   21.8490 C   0  0  0  0  0  3  0  0  0  0  0  0
   12.1950   -1.2630   21.8380 C   0  0  0  0  0  2  0  0  0  0  0  0
    5.4910    1.3120   19.1310 C   0  0  0  0  0  2  0  0  0  0  0  0
    5.9850    1.3000   17.8430 C   0  0  0  0  0  2  0  0  0  0  0  0
    7.7290   -0.0530   18.4300 C   0  0  0  0  0  2  0  0  0  0  0  0
    7.3150   -0.0980   19.7600 C   0  0  0  0  0  3  0  0  0  0  0  0
    9.1360   -0.2730   21.3580 C   0  0  0  0  0  3  0  0  0  0  0  0
    9.7660   -1.0940   22.4990 C   0  0  0  0  0  0  0  0  0  0  0  0
    9.2220   -2.5030   22.7160 C   0  0  0  0  0  2  0  0  0  0  0  0
    8.8290   -1.4200   23.6590 C   0  0  0  0  0  2  0  0  0  0  0  0
   14.6690   -1.4310   20.7920 Cl  0  0  0  0  0  0  0  0  0  0  0  0
    7.0920    0.6380   17.4820 N   0  0  0  0  0  2  0  0  0  0  0  0
    8.0590   -0.7940   20.7400 N   0  0  0  0  0  2  0  0  0  0  0  0
    9.6040    0.8120   21.0410 O   0  0  0  0  0  1  0  0  0  0  0  0
  1  2  1  0
  2  9  1  0
  2 12  1  0
  3  4  1  0
  3  8  1  0
  3 14  1  0
  4  5  1  0
  5  6  1  0
  6  7  1  0
  7  8  1  0
  7 17  1  0
  9 10  1  0
 10 18  1  0
 11 12  1  0
 11 18  1  0
 12 19  1  0
 13 14  1  0
 13 19  1  0
 13 20  1  0
 14 15  1  0
 14 16  1  0
 15 16  1  0
M  END
$$$$
