7gbr_A_KZC_405
     RDKit          3D

 23 25  0  0  0  0  0  0  0  0999 V2000
    6.8650   -1.5540   20.5590 C   0  0  0  0  0  3  0  0  0  0  0  0
    8.5420   -2.4620   22.0830 C   0  0  0  0  0  2  0  0  0  0  0  0
    6.9160   -0.2000   18.5020 C   0  0  0  0  0  2  0  0  0  0  0  0
    6.4730    0.8480   17.6330 C   0  0  0  0  0  3  0  0  0  0  0  0
    4.8910    1.5050   19.3780 C   0  0  0  0  0  3  0  0  0  0  0  0
    3.8610    2.3510   19.7870 C   0  0  0  0  0  2  0  0  0  0  0  0
    3.3270    2.2170   21.0590 C   0  0  0  0  0  2  0  0  0  0  0  0
    3.8160    1.2620   21.9310 C   0  0  0  0  0  2  0  0  0  0  0  0
    4.8410    0.4130   21.5410 C   0  0  0  0  0  2  0  0  0  0  0  0
    5.3770    0.5120   20.2530 C   0  0  0  0  0  3  0  0  0  0  0  0
   10.0560   -2.4600   22.1030 C   0  0  0  0  0  2  0  0  0  0  0  0
   11.8630   -0.8580   22.7730 C   0  0  0  0  0  3  0  0  0  0  0  0
   12.2830    0.1780   23.6040 C   0  0  0  0  0  2  0  0  0  0  0  0
   13.5570    0.7100   23.4570 C   0  0  0  0  0  2  0  0  0  0  0  0
   14.4170    0.2120   22.4950 C   0  0  0  0  0  2  0  0  0  0  0  0
   14.0110   -0.8320   21.6820 C   0  0  0  0  0  2  0  0  0  0  0  0
   12.7410   -1.3720   21.8180 C   0  0  0  0  0  2  0  0  0  0  0  0
    6.4130   -0.3820   19.7540 C   0  0  0  0  0  3  0  0  0  0  0  0
    8.0250   -1.4220   21.2030 N   0  0  0  0  0  2  0  0  0  0  0  0
   10.5740   -1.3520   22.8900 N   0  0  0  0  0  2  0  0  0  0  0  0
    5.4500    1.6300   18.1080 N   0  0  0  0  0  2  0  0  0  0  0  0
    6.1760   -2.5700   20.6560 O   0  0  0  0  0  1  0  0  0  0  0  0
    7.0190    1.1240   16.5600 O   0  0  0  0  0  1  0  0  0  0  0  0
  1 18  1  0
  1 19  1  0
  1 22  1  0
  2 11  1  0
  2 19  1  0
  3  4  1  0
  3 18  1  0
  4 21  1  0
  4 23  1  0
  5  6  1  0
  5 10  1  0
  5 21  1  0
  6  7  1  0
  7  8  1  0
  8  9  1  0
  9 10  1  0
 10 18  1  0
 11 20  1  0
 12 13  1  0
 12 17  1  0
 12 20  1  0
 13 14  1  0
 14 15  1  0
 15 16  1  0
 16 17  1  0
M  END
$$$$
