7gbs_A_KZX_404
     RDKit          3D

 18 19  0  0  0  0  0  0  0  0999 V2000
    5.9760    0.9760   21.3830 C   0  0  0  0  0  1  0  0  0  0  0  0
    6.4000    0.7330   19.9570 C   0  0  0  0  0  3  0  0  0  0  0  0
   13.3490    0.2410   23.4710 C   0  0  0  0  0  2  0  0  0  0  0  0
   14.2740   -0.3050   22.5970 C   0  0  0  0  0  2  0  0  0  0  0  0
   13.8140   -1.1670   21.6340 C   0  0  0  0  0  3  0  0  0  0  0  0
   12.4890   -1.4940   21.4880 C   0  0  0  0  0  2  0  0  0  0  0  0
    5.7100    1.3180   18.9040 C   0  0  0  0  0  2  0  0  0  0  0  0
    6.1750    1.1640   17.6120 C   0  0  0  0  0  2  0  0  0  0  0  0
    7.9370   -0.1210   18.3040 C   0  0  0  0  0  2  0  0  0  0  0  0
    7.5430   -0.0190   19.6370 C   0  0  0  0  0  3  0  0  0  0  0  0
    9.5140   -0.3070   21.0560 C   0  0  0  0  0  3  0  0  0  0  0  0
   10.0820   -1.1850   22.1530 C   0  0  0  0  0  2  0  0  0  0  0  0
   11.5570   -0.9200   22.3460 C   0  0  0  0  0  3  0  0  0  0  0  0
   12.0010   -0.0570   23.3410 C   0  0  0  0  0  2  0  0  0  0  0  0
   14.7170   -1.7410   20.7860 F   0  0  0  0  0  0  0  0  0  0  0  0
    7.2780    0.4690   17.3010 N   0  0  0  0  0  2  0  0  0  0  0  0
    8.2760   -0.6510   20.6640 N   0  0  0  0  0  2  0  0  0  0  0  0
   10.1330    0.6540   20.6010 O   0  0  0  0  0  1  0  0  0  0  0  0
  1  2  1  0
  2  7  1  0
  2 10  1  0
  3  4  1  0
  3 14  1  0
  4  5  1  0
  5  6  1  0
  5 15  1  0
  6 13  1  0
  7  8  1  0
  8 16  1  0
  9 10  1  0
  9 16  1  0
 10 17  1  0
 11 12  1  0
 11 17  1  0
 11 18  1  0
 12 13  1  0
 13 14  1  0
M  END
$$$$
