7gbv_A_L3I_404
     RDKit          3D

 20 21  0  0  0  0  0  0  0  0999 V2000
    5.5440    0.7900   21.4910 C   0  0  0  0  0  1  0  0  0  0  0  0
    6.0650    0.6140   20.0880 C   0  0  0  0  0  3  0  0  0  0  0  0
   11.2490   -0.3570   22.6810 C   0  0  0  0  0  3  0  0  0  0  0  0
   11.8230    0.5580   23.5610 C   0  0  0  0  0  2  0  0  0  0  0  0
   13.1750    0.8560   23.4920 C   0  0  0  0  0  2  0  0  0  0  0  0
   13.9820    0.2270   22.5580 C   0  0  0  0  0  2  0  0  0  0  0  0
   13.4140   -0.7140   21.7200 C   0  0  0  0  0  3  0  0  0  0  0  0
   12.0650   -1.0000   21.7540 C   0  0  0  0  0  2  0  0  0  0  0  0
    5.3990    1.1870   19.0090 C   0  0  0  0  0  2  0  0  0  0  0  0
    5.9460    1.1000   17.7460 C   0  0  0  0  0  2  0  0  0  0  0  0
    7.7200   -0.1200   18.5020 C   0  0  0  0  0  2  0  0  0  0  0  0
    7.2680   -0.0630   19.8190 C   0  0  0  0  0  3  0  0  0  0  0  0
    9.1230    0.0170   21.4080 C   0  0  0  0  0  3  0  0  0  0  0  0
    9.7350   -0.6250   22.6710 C   0  0  0  0  0  0  0  0  0  0  0  0
    9.0180    0.0010   23.8810 C   0  0  0  0  0  1  0  0  0  0  0  0
    9.4900   -2.1440   22.7160 C   0  0  0  0  0  1  0  0  0  0  0  0
   14.4400   -1.6300   20.6530 Cl  0  0  0  0  0  0  0  0  0  0  0  0
    7.0900    0.4640   17.4780 N   0  0  0  0  0  2  0  0  0  0  0  0
    8.0270   -0.5860   20.8910 N   0  0  0  0  0  2  0  0  0  0  0  0
    9.5980    1.0410   20.9420 O   0  0  0  0  0  1  0  0  0  0  0  0
  1  2  1  0
  2  9  1  0
  2 12  1  0
  3  4  1  0
  3  8  1  0
  3 14  1  0
  4  5  1  0
  5  6  1  0
  6  7  1  0
  7  8  1  0
  7 17  1  0
  9 10  1  0
 10 18  1  0
 11 12  1  0
 11 18  1  0
 12 19  1  0
 13 14  1  0
 13 19  1  0
 13 20  1  0
 14 15  1  0
 14 16  1  0
M  END
$$$$
