7gbw_A_L6R_405
     RDKit          3D

 21 22  0  0  0  0  0  0  0  0999 V2000
    9.1300   -1.1280   25.9920 C   0  0  0  0  0  1  0  0  0  0  0  0
    9.4250   -1.6770   24.6340 C   0  0  0  0  0  2  0  0  0  0  0  0
    5.8170    0.9240   21.3590 C   0  0  0  0  0  1  0  0  0  0  0  0
   11.3580   -0.6050   22.3320 C   0  0  0  0  0  3  0  0  0  0  0  0
   11.7850    0.5400   22.9950 C   0  0  0  0  0  2  0  0  0  0  0  0
   13.1130    0.9350   22.9420 C   0  0  0  0  0  2  0  0  0  0  0  0
   14.0400    0.1820   22.2380 C   0  0  0  0  0  2  0  0  0  0  0  0
   13.6150   -0.9730   21.6150 C   0  0  0  0  0  3  0  0  0  0  0  0
   12.2950   -1.3790   21.6560 C   0  0  0  0  0  2  0  0  0  0  0  0
    9.1450   -0.6650   23.5460 C   0  0  0  0  0  2  0  0  0  0  0  0
    9.8790   -0.9480   22.2260 C   0  0  0  0  0  3  0  0  0  0  0  0
    9.2570   -0.1160   21.1040 C   0  0  0  0  0  3  0  0  0  0  0  0
    7.3670   -0.0050   19.5600 C   0  0  0  0  0  3  0  0  0  0  0  0
    7.7430   -0.0460   18.2190 C   0  0  0  0  0  2  0  0  0  0  0  0
    5.9890    1.2790   17.6000 C   0  0  0  0  0  2  0  0  0  0  0  0
    5.5340    1.3750   18.8990 C   0  0  0  0  0  2  0  0  0  0  0  0
    6.2300    0.7390   19.9200 C   0  0  0  0  0  3  0  0  0  0  0  0
   14.7680   -1.9380   20.7360 Cl  0  0  0  0  0  0  0  0  0  0  0  0
    8.1390   -0.6450   20.5590 N   0  0  0  0  0  2  0  0  0  0  0  0
    7.0740    0.5820   17.2470 N   0  0  0  0  0  2  0  0  0  0  0  0
    9.7150    0.9700   20.7720 O   0  0  0  0  0  1  0  0  0  0  0  0
  1  2  1  0
  2 10  1  0
  3 17  1  0
  4  5  1  0
  4  9  1  0
  4 11  1  0
  5  6  1  0
  6  7  1  0
  7  8  1  0
  8  9  1  0
  8 18  1  0
 10 11  1  0
 11 12  1  0
 12 19  1  0
 12 21  1  0
 13 14  1  0
 13 17  1  0
 13 19  1  0
 14 20  1  0
 15 16  1  0
 15 20  1  0
 16 17  1  0
M  END
$$$$
