7gbx_A_L6D_405
     RDKit          3D

 20 22  0  0  0  0  0  0  0  0999 V2000
   13.2930   -0.9610   21.8860 C   0  0  0  0  0  3  0  0  0  0  0  0
   13.7750    0.0160   22.7340 C   0  0  0  0  0  2  0  0  0  0  0  0
    4.3990    2.2400   19.2110 C   0  0  0  0  0  2  0  0  0  0  0  0
    4.6710    1.7560   20.4930 C   0  0  0  0  0  2  0  0  0  0  0  0
    5.6840    0.8270   20.7060 C   0  0  0  0  0  2  0  0  0  0  0  0
    6.4110    0.4020   19.6010 C   0  0  0  0  0  3  0  0  0  0  0  0
   11.9610   -1.3180   21.8720 C   0  0  0  0  0  2  0  0  0  0  0  0
   12.8960    0.6120   23.6280 C   0  0  0  0  0  2  0  0  0  0  0  0
   11.5560    0.2580   23.6290 C   0  0  0  0  0  2  0  0  0  0  0  0
   11.0680   -0.6780   22.7260 C   0  0  0  0  0  3  0  0  0  0  0  0
    9.5820   -0.8670   22.5350 C   0  0  0  0  0  2  0  0  0  0  0  0
    9.1330   -0.2150   21.2410 C   0  0  0  0  0  3  0  0  0  0  0  0
    7.9450   -0.2970   18.1590 C   0  0  0  0  0  2  0  0  0  0  0  0
    6.1600    0.8830   18.3150 C   0  0  0  0  0  3  0  0  0  0  0  0
    5.1380    1.8090   18.1130 C   0  0  0  0  0  2  0  0  0  0  0  0
   14.3950   -1.7840   20.8150 Cl  0  0  0  0  0  0  0  0  0  0  0  0
    8.2760   -0.9460   20.5050 N   0  0  0  0  0  2  0  0  0  0  0  0
    7.5850   -0.3350   19.4660 N   0  0  0  0  0  0  0  0  0  0  0  0
    7.1280    0.4110   17.4210 N   0  0  0  0  0  2  0  0  0  0  0  0
    9.5090    0.9090   20.9210 O   0  0  0  0  0  1  0  0  0  0  0  0
  1  2  1  0
  1  7  1  0
  1 16  1  0
  2  8  1  0
  3  4  1  0
  3 15  1  0
  4  5  1  0
  5  6  1  0
  6 14  1  0
  6 18  1  0
  7 10  1  0
  8  9  1  0
  9 10  1  0
 10 11  1  0
 11 12  1  0
 12 17  1  0
 12 20  1  0
 13 18  1  0
 13 19  1  0
 14 15  1  0
 14 19  1  0
 17 18  1  0
M  END
$$$$
