7gc0_A_L4N_404
     RDKit          3D

 17 19  0  0  0  0  0  0  0  0999 V2000
    6.3440    0.5800   21.7770 C   0  0  0  0  0  1  0  0  0  0  0  0
    6.7670    0.4540   20.3340 C   0  0  0  0  0  3  0  0  0  0  0  0
   13.1920   -0.9580   22.1540 C   0  0  0  0  0  0  0  0  0  0  0  0
   14.4010   -1.7590   22.5110 C   0  0  0  0  0  2  0  0  0  0  0  0
   14.2990   -1.0970   21.1620 C   0  0  0  0  0  2  0  0  0  0  0  0
   11.8410   -1.6610   21.9070 C   0  0  0  0  0  2  0  0  0  0  0  0
    5.9570    0.9400   19.3140 C   0  0  0  0  0  2  0  0  0  0  0  0
    6.3950    0.8790   18.0050 C   0  0  0  0  0  2  0  0  0  0  0  0
    8.3590   -0.1220   18.6140 C   0  0  0  0  0  2  0  0  0  0  0  0
    8.0070   -0.0970   19.9650 C   0  0  0  0  0  3  0  0  0  0  0  0
   10.0610    0.0140   21.2670 C   0  0  0  0  0  3  0  0  0  0  0  0
   10.8050   -0.6440   22.3960 C   0  0  0  0  0  3  0  0  0  0  0  0
   11.5110    0.3690   23.3190 C   0  0  0  0  0  2  0  0  0  0  0  0
   12.9710    0.4140   22.8360 C   0  0  0  0  0  2  0  0  0  0  0  0
    7.5750    0.3610   17.6420 N   0  0  0  0  0  2  0  0  0  0  0  0
    8.8830   -0.5660   20.9670 N   0  0  0  0  0  2  0  0  0  0  0  0
   10.5070    0.9960   20.6750 O   0  0  0  0  0  1  0  0  0  0  0  0
  1  2  1  0
  2  7  1  0
  2 10  1  0
  3  4  1  0
  3  5  1  0
  3  6  1  0
  3 14  1  0
  4  5  1  0
  6 12  1  0
  7  8  1  0
  8 15  1  0
  9 10  1  0
  9 15  1  0
 10 16  1  0
 11 12  1  0
 11 16  1  0
 11 17  1  0
 12 13  1  0
 13 14  1  0
M  END
$$$$
