7gc1_A_L7F_404
     RDKit          3D

 17 19  0  0  0  0  0  0  0  0999 V2000
    6.4370    0.5430   21.6620 C   0  0  0  0  0  1  0  0  0  0  0  0
    6.8320    0.4680   20.2080 C   0  0  0  0  0  3  0  0  0  0  0  0
   13.3700   -1.8490   22.4560 C   0  0  0  0  0  3  0  0  0  0  0  0
   14.3810   -1.4330   23.5240 C   0  0  0  0  0  2  0  0  0  0  0  0
   13.6430   -0.3740   24.3190 C   0  0  0  0  0  2  0  0  0  0  0  0
   12.7850    0.3600   23.3000 C   0  0  0  0  0  2  0  0  0  0  0  0
    6.0030    0.9840   19.2210 C   0  0  0  0  0  2  0  0  0  0  0  0
    6.4170    0.9640   17.9040 C   0  0  0  0  0  2  0  0  0  0  0  0
    8.3910   -0.0540   18.4410 C   0  0  0  0  0  2  0  0  0  0  0  0
    8.0650   -0.0760   19.7980 C   0  0  0  0  0  3  0  0  0  0  0  0
   10.1230   -0.1590   21.1610 C   0  0  0  0  0  3  0  0  0  0  0  0
   10.8420   -1.0640   22.1350 C   0  0  0  0  0  2  0  0  0  0  0  0
   12.3450   -0.7560   22.3460 C   0  0  0  0  0  0  0  0  0  0  0  0
   13.2850   -1.0050   21.2130 C   0  0  0  0  0  2  0  0  0  0  0  0
    7.5890    0.4600   17.5020 N   0  0  0  0  0  2  0  0  0  0  0  0
    8.9310   -0.6380   20.7630 N   0  0  0  0  0  2  0  0  0  0  0  0
   10.6110    0.8960   20.7640 O   0  0  0  0  0  1  0  0  0  0  0  0
  1  2  1  0
  2  7  1  0
  2 10  1  0
  3  4  1  0
  3 13  1  0
  3 14  1  0
  4  5  1  0
  5  6  1  0
  6 13  1  0
  7  8  1  0
  8 15  1  0
  9 10  1  0
  9 15  1  0
 10 16  1  0
 11 12  1  0
 11 16  1  0
 11 17  1  0
 12 13  1  0
 13 14  1  0
M  END
$$$$
