7gc2_A_L7Q_404
     RDKit          3D

 20 21  0  0  0  0  0  0  0  0999 V2000
    5.1240    1.2290   20.9970 C   0  0  0  0  0  1  0  0  0  0  0  0
    5.9340    0.9180   19.7650 C   0  0  0  0  0  3  0  0  0  0  0  0
   10.3650   -2.1870   24.3150 C   0  0  0  0  0  1  0  0  0  0  0  0
   11.8370   -0.8910   22.7430 C   0  0  0  0  0  3  0  0  0  0  0  0
   12.7300   -1.3700   21.7860 C   0  0  0  0  0  2  0  0  0  0  0  0
   13.9580   -0.7570   21.5920 C   0  0  0  0  0  2  0  0  0  0  0  0
   14.3090    0.3450   22.3400 C   0  0  0  0  0  2  0  0  0  0  0  0
   13.4410    0.8280   23.2980 C   0  0  0  0  0  2  0  0  0  0  0  0
   12.2170    0.2110   23.5050 C   0  0  0  0  0  2  0  0  0  0  0  0
    5.4960    1.3290   18.5090 C   0  0  0  0  0  2  0  0  0  0  0  0
    6.2570    1.0490   17.3940 C   0  0  0  0  0  2  0  0  0  0  0  0
    7.8500   -0.0030   18.6430 C   0  0  0  0  0  2  0  0  0  0  0  0
    7.1680    0.2470   19.8350 C   0  0  0  0  0  3  0  0  0  0  0  0
    9.0840    0.0910   21.4440 C   0  0  0  0  0  3  0  0  0  0  0  0
    9.3570   -0.4320   22.8390 C   0  0  0  0  0  2  0  0  0  0  0  0
   10.4530   -1.5250   22.9350 C   0  0  0  0  0  0  0  0  0  0  0  0
   10.1400   -2.6050   21.8880 C   0  0  0  0  0  1  0  0  0  0  0  0
    7.4150    0.3860   17.4400 N   0  0  0  0  0  2  0  0  0  0  0  0
    7.7780    0.1110   21.1060 N   0  0  0  0  0  2  0  0  0  0  0  0
    9.9790    0.5320   20.7290 O   0  0  0  0  0  1  0  0  0  0  0  0
  1  2  1  0
  2 10  1  0
  2 13  1  0
  3 16  1  0
  4  5  1  0
  4  9  1  0
  4 16  1  0
  5  6  1  0
  6  7  1  0
  7  8  1  0
  8  9  1  0
 10 11  1  0
 11 18  1  0
 12 13  1  0
 12 18  1  0
 13 19  1  0
 14 15  1  0
 14 19  1  0
 14 20  1  0
 15 16  1  0
 16 17  1  0
M  END
$$$$
