7gc5_A_L8F_404
     RDKit          3D

 25 27  0  0  0  0  0  0  0  0999 V2000
    9.5310    5.8760   22.4220 C   0  0  0  0  0  1  0  0  0  0  0  0
   10.8460    5.6810   23.1260 C   0  0  0  0  0  3  0  0  0  0  0  0
    7.3470   -2.6920   21.9340 C   0  0  0  0  0  2  0  0  0  0  0  0
    8.5270   -1.0990   20.5370 C   0  0  0  0  0  2  0  0  0  0  0  0
    9.8320   -1.4540   21.2160 C   0  0  0  0  0  2  0  0  0  0  0  0
    7.2680   -2.9420   19.4450 C   0  0  0  0  0  3  0  0  0  0  0  0
    7.7740   -2.4210   18.1120 C   0  0  0  0  0  1  0  0  0  0  0  0
   13.0670   -1.9100   22.1500 C   0  0  0  0  0  2  0  0  0  0  0  0
   14.1150   -1.1540   21.6460 C   0  0  0  0  0  2  0  0  0  0  0  0
   14.1660    0.2140   21.8620 C   0  0  0  0  0  2  0  0  0  0  0  0
   13.1600    0.8350   22.6020 C   0  0  0  0  0  3  0  0  0  0  0  0
   13.0910    4.7160   23.0150 C   0  0  0  0  0  2  0  0  0  0  0  0
   13.6500    3.4060   22.5000 C   0  0  0  0  0  2  0  0  0  0  0  0
   12.8700    2.2040   22.9480 C   0  0  0  0  0  3  0  0  0  0  0  0
   11.7150    2.1780   23.6780 C   0  0  0  0  0  2  0  0  0  0  0  0
   12.1150    0.0520   23.1330 C   0  0  0  0  0  3  0  0  0  0  0  0
   12.0380   -1.3280   22.8950 C   0  0  0  0  0  3  0  0  0  0  0  0
   10.8490   -2.1580   23.3260 C   0  0  0  0  0  2  0  0  0  0  0  0
    8.6500   -2.9930   22.6900 C   0  0  0  0  0  2  0  0  0  0  0  0
   11.7860    5.0210   22.4470 N   0  0  0  0  0  2  0  0  0  0  0  0
   11.2510    0.8930   23.7930 N   0  0  0  0  0  2  0  0  0  0  0  0
    9.5900   -1.8450   22.6270 N   0  0  0  0  0  0  0  0  0  0  0  0
    7.6470   -2.2720   20.5570 N   0  0  0  0  0  0  0  0  0  0  0  0
   11.0440    6.0920   24.2670 O   0  0  0  0  0  1  0  0  0  0  0  0
    6.5620   -3.9390   19.4920 O   0  0  0  0  0  1  0  0  0  0  0  0
  1  2  1  0
  2 20  1  0
  2 24  1  0
  3 19  1  0
  3 23  1  0
  4  5  1  0
  4 23  1  0
  5 22  1  0
  6  7  1  0
  6 23  1  0
  6 25  1  0
  8  9  1  0
  8 17  1  0
  9 10  1  0
 10 11  1  0
 11 14  1  0
 11 16  1  0
 12 13  1  0
 12 20  1  0
 13 14  1  0
 14 15  1  0
 15 21  1  0
 16 17  1  0
 16 21  1  0
 17 18  1  0
 18 22  1  0
 19 22  1  0
M  END
$$$$
