7gc6_A_L8O_405
     RDKit          3D

 20 22  0  0  0  0  0  0  0  0999 V2000
   13.6110   -1.2660   21.5070 C   0  0  0  0  0  1  0  0  0  0  0  0
   12.4380   -0.8160   22.3410 C   0  0  0  0  0  3  0  0  0  0  0  0
    7.4840   -3.8490   23.4720 C   0  0  0  0  0  3  0  0  0  0  0  0
    7.2650   -5.0090   24.2150 C   0  0  0  0  0  2  0  0  0  0  0  0
    8.1770   -5.4090   25.1770 C   0  0  0  0  0  2  0  0  0  0  0  0
    9.3170   -4.6710   25.3930 C   0  0  0  0  0  2  0  0  0  0  0  0
    9.5470   -3.5200   24.6570 C   0  0  0  0  0  2  0  0  0  0  0  0
    8.6280   -3.0920   23.7010 C   0  0  0  0  0  3  0  0  0  0  0  0
    6.7040   -3.2030   20.0040 C   0  0  0  0  0  3  0  0  0  0  0  0
    7.4960   -2.7850   18.7910 C   0  0  0  0  0  1  0  0  0  0  0  0
   12.5720    0.2180   23.2610 C   0  0  0  0  0  2  0  0  0  0  0  0
   11.5300    0.5580   24.1070 C   0  0  0  0  0  2  0  0  0  0  0  0
   10.3300   -0.1230   24.0280 C   0  0  0  0  0  2  0  0  0  0  0  0
   10.1560   -1.1380   23.0970 C   0  0  0  0  0  3  0  0  0  0  0  0
   11.2180   -1.4760   22.2650 C   0  0  0  0  0  2  0  0  0  0  0  0
    8.7930   -1.7990   22.9390 C   0  0  0  0  0  3  0  0  0  0  0  0
    8.3380   -1.9670   21.4820 C   0  0  0  0  0  2  0  0  0  0  0  0
    6.5140   -3.3330   22.4410 C   0  0  0  0  0  2  0  0  0  0  0  0
    7.1970   -2.8610   21.2150 N   0  0  0  0  0  0  0  0  0  0  0  0
    5.6420   -3.7730   19.8860 O   0  0  0  0  0  1  0  0  0  0  0  0
  1  2  1  0
  2 11  1  0
  2 15  1  0
  3  4  1  0
  3  8  1  0
  3 18  1  0
  4  5  1  0
  5  6  1  0
  6  7  1  0
  7  8  1  0
  8 16  1  0
  9 10  1  0
  9 19  1  0
  9 20  1  0
 11 12  1  0
 12 13  1  0
 13 14  1  0
 14 15  1  0
 14 16  1  0
 16 17  1  0
 17 19  1  0
 18 19  1  0
M  END
$$$$
