7gc8_A_L9F_404
     RDKit          3D

 20 22  0  0  0  0  0  0  0  0999 V2000
   13.2200   -1.2970   21.9580 C   0  0  0  0  0  3  0  0  0  0  0  0
   13.6560   -0.5720   23.0510 C   0  0  0  0  0  2  0  0  0  0  0  0
    5.7710    1.1900   19.8030 C   0  0  0  0  0  2  0  0  0  0  0  0
    5.3580    1.6420   18.5610 C   0  0  0  0  0  2  0  0  0  0  0  0
    6.0660    1.2280   17.4480 C   0  0  0  0  0  2  0  0  0  0  0  0
    7.4940   -0.0210   18.7260 C   0  0  0  0  0  2  0  0  0  0  0  0
   12.7180    0.0840   23.8360 C   0  0  0  0  0  2  0  0  0  0  0  0
   11.3700    0.0240   23.5200 C   0  0  0  0  0  2  0  0  0  0  0  0
   10.9560   -0.6900   22.3990 C   0  0  0  0  0  3  0  0  0  0  0  0
   11.8850   -1.3680   21.6130 C   0  0  0  0  0  2  0  0  0  0  0  0
    8.6990   -1.7730   22.1620 C   0  0  0  0  0  3  0  0  0  0  0  0
    7.4770    0.0150   21.2660 C   0  0  0  0  0  3  0  0  0  0  0  0
    8.9440    0.3810   21.3730 C   0  0  0  0  0  3  0  0  0  0  0  0
    6.8720    0.3520   19.9100 C   0  0  0  0  0  3  0  0  0  0  0  0
   14.3800   -2.1780   21.0050 Cl  0  0  0  0  0  0  0  0  0  0  0  0
    9.5690   -0.6850   22.0180 N   0  0  0  0  0  0  0  0  0  0  0  0
    7.5050   -1.3860   21.6650 N   0  0  0  0  0  2  0  0  0  0  0  0
    7.1230    0.4070   17.5140 N   0  0  0  0  0  2  0  0  0  0  0  0
    8.9740   -2.8580   22.6510 O   0  0  0  0  0  1  0  0  0  0  0  0
    9.5170    1.3620   20.9400 O   0  0  0  0  0  1  0  0  0  0  0  0
  1  2  1  0
  1 10  1  0
  1 15  1  0
  2  7  1  0
  3  4  1  0
  3 14  1  0
  4  5  1  0
  5 18  1  0
  6 14  1  0
  6 18  1  0
  7  8  1  0
  8  9  1  0
  9 10  1  0
  9 16  1  0
 11 16  1  0
 11 17  1  0
 11 19  1  0
 12 13  1  0
 12 14  1  0
 12 17  1  0
 13 16  1  0
 13 20  1  0
M  END
$$$$
