7gca_A_LB0_405
     RDKit          3D

 17 19  0  0  0  0  0  0  0  0999 V2000
    5.4060    1.0270   21.5560 C   0  0  0  0  0  1  0  0  0  0  0  0
    5.8870    0.7850   20.1480 C   0  0  0  0  0  3  0  0  0  0  0  0
   10.7160    0.0630   23.3390 C   0  0  0  0  0  2  0  0  0  0  0  0
   12.6960   -1.4510   23.2370 C   0  0  0  0  0  3  0  0  0  0  0  0
   13.9740   -1.7670   22.5250 C   0  0  0  0  0  2  0  0  0  0  0  0
   13.9000   -0.5840   23.4310 C   0  0  0  0  0  2  0  0  0  0  0  0
    5.2030    1.3200   19.0640 C   0  0  0  0  0  2  0  0  0  0  0  0
    5.7240    1.1780   17.7910 C   0  0  0  0  0  2  0  0  0  0  0  0
    7.5100   -0.0240   18.5550 C   0  0  0  0  0  2  0  0  0  0  0  0
    7.0750    0.0810   19.8760 C   0  0  0  0  0  3  0  0  0  0  0  0
    8.9460    0.0870   21.4330 C   0  0  0  0  0  3  0  0  0  0  0  0
    9.4660   -0.5780   22.6830 C   0  0  0  0  0  3  0  0  0  0  0  0
   10.3230   -1.8550   22.4830 C   0  0  0  0  0  2  0  0  0  0  0  0
   11.5580   -0.9300   22.5150 C   0  0  0  0  0  3  0  0  0  0  0  0
    6.8610    0.5280   17.5250 N   0  0  0  0  0  2  0  0  0  0  0  0
    7.8190   -0.4590   20.9410 N   0  0  0  0  0  2  0  0  0  0  0  0
    9.5000    1.0570   20.9350 O   0  0  0  0  0  1  0  0  0  0  0  0
  1  2  1  0
  2  7  1  0
  2 10  1  0
  3 12  1  0
  3 14  1  0
  4  5  1  0
  4  6  1  0
  4 14  1  0
  5  6  1  0
  7  8  1  0
  8 15  1  0
  9 10  1  0
  9 15  1  0
 10 16  1  0
 11 12  1  0
 11 16  1  0
 11 17  1  0
 12 13  1  0
 13 14  1  0
M  END
$$$$
