7gcb_A_LBC_404
     RDKit          3D

 18 19  0  0  0  0  0  0  0  0999 V2000
    5.0100    1.0000   21.2640 C   0  0  0  0  0  1  0  0  0  0  0  0
    5.5660    0.7560   19.8840 C   0  0  0  0  0  3  0  0  0  0  0  0
   11.4090    0.8140   24.4380 C   0  0  0  0  0  2  0  0  0  0  0  0
   12.5330    0.3260   23.7900 C   0  0  0  0  0  2  0  0  0  0  0  0
   12.3780   -0.6930   22.8670 C   0  0  0  0  0  3  0  0  0  0  0  0
   11.1330   -1.1920   22.5530 C   0  0  0  0  0  2  0  0  0  0  0  0
    5.0480    1.4240   18.7810 C   0  0  0  0  0  2  0  0  0  0  0  0
    5.6200    1.2380   17.5390 C   0  0  0  0  0  2  0  0  0  0  0  0
    7.1510   -0.2430   18.3660 C   0  0  0  0  0  2  0  0  0  0  0  0
    6.6490   -0.1090   19.6610 C   0  0  0  0  0  3  0  0  0  0  0  0
    8.3580   -0.3800   21.3640 C   0  0  0  0  0  3  0  0  0  0  0  0
    8.6340   -1.0840   22.6770 C   0  0  0  0  0  2  0  0  0  0  0  0
   10.0000   -0.6820   23.1710 C   0  0  0  0  0  3  0  0  0  0  0  0
   10.1540    0.3050   24.1360 C   0  0  0  0  0  2  0  0  0  0  0  0
   14.0600   -1.5900   22.0140 I   0  0  0  0  0  0  0  0  0  0  0  0
    6.6560    0.4210   17.3170 N   0  0  0  0  0  2  0  0  0  0  0  0
    7.2310   -0.7810   20.7530 N   0  0  0  0  0  2  0  0  0  0  0  0
    9.0850    0.5170   20.9370 O   0  0  0  0  0  1  0  0  0  0  0  0
  1  2  1  0
  2  7  1  0
  2 10  1  0
  3  4  1  0
  3 14  1  0
  4  5  1  0
  5  6  1  0
  5 15  1  0
  6 13  1  0
  7  8  1  0
  8 16  1  0
  9 10  1  0
  9 16  1  0
 10 17  1  0
 11 12  1  0
 11 17  1  0
 11 18  1  0
 12 13  1  0
 13 14  1  0
M  END
$$$$
