7gcd_A_LCU_405
     RDKit          3D

 17 19  0  0  0  0  0  0  0  0999 V2000
    5.6890    0.9310   21.8360 C   0  0  0  0  0  1  0  0  0  0  0  0
    6.0880    0.6520   20.4080 C   0  0  0  0  0  3  0  0  0  0  0  0
   12.8410   -2.1330   22.8180 C   0  0  0  0  0  3  0  0  0  0  0  0
   14.1080   -1.8150   23.5460 C   0  0  0  0  0  2  0  0  0  0  0  0
   12.7770   -1.4430   24.1160 C   0  0  0  0  0  3  0  0  0  0  0  0
   12.2530   -0.0290   23.8690 C   0  0  0  0  0  2  0  0  0  0  0  0
    5.2920    1.0840   19.3520 C   0  0  0  0  0  2  0  0  0  0  0  0
    5.7110    0.8750   18.0520 C   0  0  0  0  0  2  0  0  0  0  0  0
    7.6290   -0.1660   18.7380 C   0  0  0  0  0  2  0  0  0  0  0  0
    7.2910   -0.0080   20.0840 C   0  0  0  0  0  3  0  0  0  0  0  0
    9.2590    0.1890   21.4940 C   0  0  0  0  0  3  0  0  0  0  0  0
   10.0420   -0.4740   22.6120 C   0  0  0  0  0  2  0  0  0  0  0  0
   11.5300   -0.1300   22.5240 C   0  0  0  0  0  3  0  0  0  0  0  0
   12.3640   -1.1500   21.7470 C   0  0  0  0  0  2  0  0  0  0  0  0
    6.8630    0.2710   17.7340 N   0  0  0  0  0  2  0  0  0  0  0  0
    8.1440   -0.4630   21.1160 N   0  0  0  0  0  2  0  0  0  0  0  0
    9.6330    1.2380   20.9840 O   0  0  0  0  0  1  0  0  0  0  0  0
  1  2  1  0
  2  7  1  0
  2 10  1  0
  3  4  1  0
  3  5  1  0
  3 14  1  0
  4  5  1  0
  5  6  1  0
  6 13  1  0
  7  8  1  0
  8 15  1  0
  9 10  1  0
  9 15  1  0
 10 16  1  0
 11 12  1  0
 11 16  1  0
 11 17  1  0
 12 13  1  0
 13 14  1  0
M  END
$$$$
