7gce_A_LDX_404
     RDKit          3D

 19 20  0  0  0  0  0  0  0  0999 V2000
    6.4590    0.7010   21.5870 C   0  0  0  0  0  1  0  0  0  0  0  0
    6.7790    0.5310   20.1230 C   0  0  0  0  0  3  0  0  0  0  0  0
   12.9890   -0.8690   24.6880 C   0  0  0  0  0  2  0  0  0  0  0  0
   13.8300   -1.6530   25.4680 C   0  0  0  0  0  2  0  0  0  0  0  0
   14.7320   -2.5100   24.8710 C   0  0  0  0  0  2  0  0  0  0  0  0
   14.8190   -2.5730   23.4900 C   0  0  0  0  0  2  0  0  0  0  0  0
   13.9770   -1.7810   22.7430 C   0  0  0  0  0  3  0  0  0  0  0  0
    5.9530    1.0860   19.1500 C   0  0  0  0  0  2  0  0  0  0  0  0
    6.3060    0.9930   17.8200 C   0  0  0  0  0  2  0  0  0  0  0  0
    8.2130   -0.1640   18.3150 C   0  0  0  0  0  2  0  0  0  0  0  0
    7.9470   -0.1340   19.6850 C   0  0  0  0  0  3  0  0  0  0  0  0
    9.9880   -0.1310   20.9960 C   0  0  0  0  0  3  0  0  0  0  0  0
   10.8730   -0.9520   21.9080 C   0  0  0  0  0  2  0  0  0  0  0  0
   12.0530   -0.1270   22.4720 C   0  0  0  0  0  2  0  0  0  0  0  0
   13.0340   -0.9360   23.2950 C   0  0  0  0  0  3  0  0  0  0  0  0
   14.0910   -1.8050   21.3950 F   0  0  0  0  0  0  0  0  0  0  0  0
    7.4200    0.3900   17.3910 N   0  0  0  0  0  2  0  0  0  0  0  0
    8.8320   -0.7190   20.6340 N   0  0  0  0  0  2  0  0  0  0  0  0
   10.3230    0.9830   20.6050 O   0  0  0  0  0  1  0  0  0  0  0  0
  1  2  1  0
  2  8  1  0
  2 11  1  0
  3  4  1  0
  3 15  1  0
  4  5  1  0
  5  6  1  0
  6  7  1  0
  7 15  1  0
  7 16  1  0
  8  9  1  0
  9 17  1  0
 10 11  1  0
 10 17  1  0
 11 18  1  0
 12 13  1  0
 12 18  1  0
 12 19  1  0
 13 14  1  0
 14 15  1  0
M  END
$$$$
