7gcf_A_LKX_404
     RDKit          3D

 17 18  0  0  0  0  0  0  0  0999 V2000
   13.2540   -0.8630   21.7890 C   0  0  0  0  0  3  0  0  0  0  0  0
   13.5830    0.2490   22.5350 C   0  0  0  0  0  2  0  0  0  0  0  0
   12.5670    0.9550   23.1580 C   0  0  0  0  0  2  0  0  0  0  0  0
   11.2450    0.5600   23.0050 C   0  0  0  0  0  2  0  0  0  0  0  0
   10.9180   -0.5400   22.2200 C   0  0  0  0  0  3  0  0  0  0  0  0
    9.4750   -0.8890   21.9290 C   0  0  0  0  0  2  0  0  0  0  0  0
    8.8990   -0.0470   20.8070 C   0  0  0  0  0  3  0  0  0  0  0  0
    6.0010    1.2740   20.1820 C   0  0  0  0  0  2  0  0  0  0  0  0
    6.8120    0.4980   18.2700 C   0  0  0  0  0  3  0  0  0  0  0  0
   11.9440   -1.2720   21.6300 C   0  0  0  0  0  2  0  0  0  0  0  0
   14.5210   -1.7720   21.0070 Cl  0  0  0  0  0  0  0  0  0  0  0  0
    7.7140   -0.4760   20.3260 N   0  0  0  0  0  2  0  0  0  0  0  0
    6.8910    0.4000   19.6390 N   0  0  0  0  0  0  0  0  0  0  0  0
    5.3520    1.9160   19.2660 N   0  0  0  0  0  2  0  0  0  0  0  0
    5.8580    1.4250   18.0820 N   0  0  0  0  0  2  0  0  0  0  0  0
    9.4680    0.9690   20.4120 O   0  0  0  0  0  1  0  0  0  0  0  0
    7.5030   -0.0900   17.4580 O   0  0  0  0  0  1  0  0  0  0  0  0
  1  2  1  0
  1 10  1  0
  1 11  1  0
  2  3  1  0
  3  4  1  0
  4  5  1  0
  5  6  1  0
  5 10  1  0
  6  7  1  0
  7 12  1  0
  7 16  1  0
  8 13  1  0
  8 14  1  0
  9 13  1  0
  9 15  1  0
  9 17  1  0
 12 13  1  0
 14 15  1  0
M  END
$$$$
