7gci_A_LJO_405
     RDKit          3D

 17 18  0  0  0  0  0  0  0  0999 V2000
    5.2960    0.8650   21.8580 C   0  0  0  0  0  1  0  0  0  0  0  0
    5.8990    0.6320   20.4960 C   0  0  0  0  0  3  0  0  0  0  0  0
   10.6110   -2.0300   22.2540 C   0  0  0  0  0  2  0  0  0  0  0  0
   11.0810    0.1190   23.2940 C   0  0  0  0  0  2  0  0  0  0  0  0
    5.1450    0.8390   19.3440 C   0  0  0  0  0  2  0  0  0  0  0  0
    5.7330    0.6830   18.1030 C   0  0  0  0  0  2  0  0  0  0  0  0
    7.7400    0.1290   19.0340 C   0  0  0  0  0  2  0  0  0  0  0  0
    7.2520    0.3120   20.3330 C   0  0  0  0  0  3  0  0  0  0  0  0
    9.3830    0.1220   21.5910 C   0  0  0  0  0  3  0  0  0  0  0  0
    9.9990   -0.7090   22.7340 C   0  0  0  0  0  0  0  0  0  0  0  0
    9.0500   -1.1370   23.8850 C   0  0  0  0  0  2  0  0  0  0  0  0
    9.3290   -2.6220   24.0350 C   0  0  0  0  0  2  0  0  0  0  0  0
    7.0050    0.3120   17.9320 N   0  0  0  0  0  2  0  0  0  0  0  0
    8.0490    0.1420   21.4900 N   0  0  0  0  0  2  0  0  0  0  0  0
   11.9000    0.8100   23.6730 N   0  0  0  0  0  1  0  0  0  0  0  0
   10.1020    0.8620   20.9450 O   0  0  0  0  0  1  0  0  0  0  0  0
   10.5850   -2.8710   23.4020 O   0  0  0  0  0  0  0  0  0  0  0  0
  1  2  1  0
  2  5  1  0
  2  8  1  0
  3 10  1  0
  3 17  1  0
  4 10  1  0
  4 15  1  0
  5  6  1  0
  6 13  1  0
  7  8  1  0
  7 13  1  0
  8 14  1  0
  9 10  1  0
  9 14  1  0
  9 16  1  0
 10 11  1  0
 11 12  1  0
 12 17  1  0
M  END
$$$$
