7gcj_A_LJ0_404
     RDKit          3D

 17 19  0  0  0  0  0  0  0  0999 V2000
    6.7960    0.0340   21.7470 C   0  0  0  0  0  1  0  0  0  0  0  0
    7.0940    0.1900   20.2750 C   0  0  0  0  0  3  0  0  0  0  0  0
   14.1500   -2.2410   22.9380 C   0  0  0  0  0  2  0  0  0  0  0  0
   13.8260   -1.4720   24.2030 C   0  0  0  0  0  2  0  0  0  0  0  0
   12.3800   -0.9660   24.1930 C   0  0  0  0  0  2  0  0  0  0  0  0
   12.0200   -0.1440   22.9510 C   0  0  0  0  0  3  0  0  0  0  0  0
    6.1600    0.7700   19.4180 C   0  0  0  0  0  2  0  0  0  0  0  0
    6.4270    0.8450   18.0670 C   0  0  0  0  0  2  0  0  0  0  0  0
    8.4770   -0.1300   18.3270 C   0  0  0  0  0  2  0  0  0  0  0  0
    8.3050   -0.2680   19.7080 C   0  0  0  0  0  3  0  0  0  0  0  0
   10.3790   -0.0760   20.9620 C   0  0  0  0  0  3  0  0  0  0  0  0
   11.4060   -0.8560   21.7530 C   0  0  0  0  0  3  0  0  0  0  0  0
   12.8370   -0.3350   21.7110 C   0  0  0  0  0  3  0  0  0  0  0  0
   13.9670   -1.3770   21.6840 C   0  0  0  0  0  2  0  0  0  0  0  0
    7.5640    0.4130   17.5130 N   0  0  0  0  0  2  0  0  0  0  0  0
    9.3210   -0.8020   20.5500 N   0  0  0  0  0  2  0  0  0  0  0  0
   10.5220    1.1200   20.7130 O   0  0  0  0  0  1  0  0  0  0  0  0
  1  2  1  0
  2  7  1  0
  2 10  1  0
  3  4  1  0
  3 14  1  0
  4  5  1  0
  5  6  1  0
  6 12  1  0
  6 13  1  0
  7  8  1  0
  8 15  1  0
  9 10  1  0
  9 15  1  0
 10 16  1  0
 11 12  1  0
 11 16  1  0
 11 17  1  0
 12 13  1  0
 13 14  1  0
M  END
$$$$
