7gck_A_LF3_404
     RDKit          3D

 23 25  0  0  0  0  0  0  0  0999 V2000
    5.5420    1.0670   21.0760 C   0  0  0  0  0  1  0  0  0  0  0  0
    6.0280    0.8330   19.6680 C   0  0  0  0  0  3  0  0  0  0  0  0
   12.4060    0.1420   23.8190 C   0  0  0  0  0  3  0  0  0  0  0  0
   13.7780    0.2350   23.7080 C   0  0  0  0  0  2  0  0  0  0  0  0
   14.4170   -0.4120   22.6710 C   0  0  0  0  0  2  0  0  0  0  0  0
   13.6840   -1.1840   21.8010 C   0  0  0  0  0  3  0  0  0  0  0  0
   12.3100   -1.2880   21.8920 C   0  0  0  0  0  2  0  0  0  0  0  0
   11.6580   -0.5780   22.8960 C   0  0  0  0  0  3  0  0  0  0  0  0
    5.4740    1.5340   18.6040 C   0  0  0  0  0  2  0  0  0  0  0  0
    6.0170    1.4030   17.3440 C   0  0  0  0  0  2  0  0  0  0  0  0
    7.5730   -0.1090   18.0750 C   0  0  0  0  0  2  0  0  0  0  0  0
    7.1010   -0.0250   19.3840 C   0  0  0  0  0  3  0  0  0  0  0  0
    8.9330   -0.3720   20.9530 C   0  0  0  0  0  3  0  0  0  0  0  0
    9.4150   -1.2670   22.0780 C   0  0  0  0  0  2  0  0  0  0  0  0
    9.6370    0.4330   23.7960 C   0  0  0  0  0  3  0  0  0  0  0  0
   10.5190    1.2910   24.6700 C   0  0  0  0  0  2  0  0  0  0  0  0
   14.5230   -2.0890   20.5720 Cl  0  0  0  0  0  0  0  0  0  0  0  0
    7.0530    0.5990   17.0660 N   0  0  0  0  0  2  0  0  0  0  0  0
    7.7410   -0.7280   20.4280 N   0  0  0  0  0  2  0  0  0  0  0  0
   10.2580   -0.4890   22.9780 N   0  0  0  0  0  0  0  0  0  0  0  0
    9.5740    0.6150   20.6070 O   0  0  0  0  0  1  0  0  0  0  0  0
    8.4220    0.5980   23.8450 O   0  0  0  0  0  1  0  0  0  0  0  0
   11.8240    0.7460   24.9040 O   0  0  0  0  0  0  0  0  0  0  0  0
  1  2  1  0
  2  9  1  0
  2 12  1  0
  3  4  1  0
  3  8  1  0
  3 23  1  0
  4  5  1  0
  5  6  1  0
  6  7  1  0
  6 17  1  0
  7  8  1  0
  8 20  1  0
  9 10  1  0
 10 18  1  0
 11 12  1  0
 11 18  1  0
 12 19  1  0
 13 14  1  0
 13 19  1  0
 13 21  1  0
 14 20  1  0
 15 16  1  0
 15 20  1  0
 15 22  1  0
 16 23  1  0
M  END
$$$$
