7gcl_A_LR0_405
     RDKit          3D

 22 24  0  0  0  0  0  0  0  0999 V2000
    3.8670    1.3580   23.1720 C   0  0  0  0  0  1  0  0  0  0  0  0
    4.0060    1.2980   21.6790 C   0  0  0  0  0  3  0  0  0  0  0  0
   11.0740    0.5190   23.4460 C   0  0  0  0  0  3  0  0  0  0  0  0
   12.3700    0.9610   23.6910 C   0  0  0  0  0  2  0  0  0  0  0  0
   13.4300    0.4300   22.9710 C   0  0  0  0  0  2  0  0  0  0  0  0
   13.1610   -0.5620   22.0450 C   0  0  0  0  0  3  0  0  0  0  0  0
   11.8910   -1.0240   21.7740 C   0  0  0  0  0  2  0  0  0  0  0  0
   10.8580   -0.4330   22.4910 C   0  0  0  0  0  3  0  0  0  0  0  0
    5.7350    0.8360   19.9050 C   0  0  0  0  0  3  0  0  0  0  0  0
    5.0800    1.3950   18.8100 C   0  0  0  0  0  2  0  0  0  0  0  0
    5.6560    1.2390   17.5640 C   0  0  0  0  0  2  0  0  0  0  0  0
    7.4110    0.0190   18.3930 C   0  0  0  0  0  2  0  0  0  0  0  0
    6.9360    0.1380   19.6950 C   0  0  0  0  0  3  0  0  0  0  0  0
    8.7380    0.3460   21.3330 C   0  0  0  0  0  3  0  0  0  0  0  0
    9.3420   -0.3170   22.5700 C   0  0  0  0  0  3  0  0  0  0  0  0
    9.5990    0.6350   23.7920 C   0  0  0  0  0  2  0  0  0  0  0  0
   14.2040   -1.1450   21.3980 F   0  0  0  0  0  0  0  0  0  0  0  0
    5.2600    1.0090   21.2300 N   0  0  0  0  0  2  0  0  0  0  0  0
    6.7940    0.5650   17.3400 N   0  0  0  0  0  2  0  0  0  0  0  0
    7.6980   -0.3260   20.7910 N   0  0  0  0  0  2  0  0  0  0  0  0
    3.0480    1.4950   20.9280 O   0  0  0  0  0  1  0  0  0  0  0  0
    9.1640    1.4100   20.8850 O   0  0  0  0  0  1  0  0  0  0  0  0
  1  2  1  0
  2 18  1  0
  2 21  1  0
  3  4  1  0
  3  8  1  0
  3 16  1  0
  4  5  1  0
  5  6  1  0
  6  7  1  0
  6 17  1  0
  7  8  1  0
  8 15  1  0
  9 10  1  0
  9 13  1  0
  9 18  1  0
 10 11  1  0
 11 19  1  0
 12 13  1  0
 12 19  1  0
 13 20  1  0
 14 15  1  0
 14 20  1  0
 14 22  1  0
 15 16  1  0
M  END
$$$$
