7gcm_A_LQU_403
     RDKit          3D

 21 23  0  0  0  0  0  0  0  0999 V2000
    7.6930   -2.5040   18.8000 C   0  0  0  0  0  1  0  0  0  0  0  0
    7.1760   -3.3420   19.9540 C   0  0  0  0  0  3  0  0  0  0  0  0
   11.5900   -1.6110   21.9160 C   0  0  0  0  0  2  0  0  0  0  0  0
    9.2220   -3.3690   23.4790 C   0  0  0  0  0  3  0  0  0  0  0  0
   10.2450   -3.8170   24.3150 C   0  0  0  0  0  2  0  0  0  0  0  0
   10.1420   -5.0320   24.9700 C   0  0  0  0  0  2  0  0  0  0  0  0
    9.0280   -5.8180   24.7870 C   0  0  0  0  0  2  0  0  0  0  0  0
    8.0110   -5.3970   23.9430 C   0  0  0  0  0  2  0  0  0  0  0  0
    8.0970   -4.1710   23.2860 C   0  0  0  0  0  3  0  0  0  0  0  0
    7.0040   -3.6530   22.3870 C   0  0  0  0  0  2  0  0  0  0  0  0
    8.5220   -1.9230   21.5270 C   0  0  0  0  0  2  0  0  0  0  0  0
    9.2580   -1.9840   22.8750 C   0  0  0  0  0  3  0  0  0  0  0  0
   10.6310   -1.3220   22.8830 C   0  0  0  0  0  3  0  0  0  0  0  0
   10.9290   -0.3900   23.8710 C   0  0  0  0  0  2  0  0  0  0  0  0
   12.1500    0.2650   23.8830 C   0  0  0  0  0  2  0  0  0  0  0  0
   13.0960   -0.0110   22.9130 C   0  0  0  0  0  2  0  0  0  0  0  0
   12.8280   -0.9700   21.9400 C   0  0  0  0  0  3  0  0  0  0  0  0
   13.8740   -1.3950   21.0450 C   0  0  0  0  0  2  0  0  0  0  0  0
    7.5690   -2.9940   21.1980 N   0  0  0  0  0  0  0  0  0  0  0  0
   14.7280   -1.7200   20.3600 N   0  0  0  0  0  1  0  0  0  0  0  0
    6.4100   -4.2700   19.7520 O   0  0  0  0  0  1  0  0  0  0  0  0
  1  2  1  0
  2 19  1  0
  2 21  1  0
  3 13  1  0
  3 17  1  0
  4  5  1  0
  4  9  1  0
  4 12  1  0
  5  6  1  0
  6  7  1  0
  7  8  1  0
  8  9  1  0
  9 10  1  0
 10 19  1  0
 11 12  1  0
 11 19  1  0
 12 13  1  0
 13 14  1  0
 14 15  1  0
 15 16  1  0
 16 17  1  0
 17 18  1  0
 18 20  1  0
M  END
$$$$
