7gcn_A_LQ0_405
     RDKit          3D

 21 23  0  0  0  0  0  0  0  0999 V2000
    4.9450    0.9410   21.3480 C   0  0  0  0  0  1  0  0  0  0  0  0
    5.4540    0.7350   19.9440 C   0  0  0  0  0  3  0  0  0  0  0  0
   11.6490    0.2400   23.9730 C   0  0  0  0  0  3  0  0  0  0  0  0
   13.0120    0.5060   23.8460 C   0  0  0  0  0  2  0  0  0  0  0  0
   13.7510   -0.0800   22.8340 C   0  0  0  0  0  2  0  0  0  0  0  0
   13.1280   -0.9520   21.9540 C   0  0  0  0  0  3  0  0  0  0  0  0
   11.7740   -1.2270   22.0250 C   0  0  0  0  0  2  0  0  0  0  0  0
   11.0460   -0.6170   23.0360 C   0  0  0  0  0  3  0  0  0  0  0  0
    4.8860    1.4210   18.8770 C   0  0  0  0  0  2  0  0  0  0  0  0
    5.4690    1.3420   17.6260 C   0  0  0  0  0  2  0  0  0  0  0  0
    7.0990   -0.0770   18.3730 C   0  0  0  0  0  2  0  0  0  0  0  0
    6.5840   -0.0550   19.6710 C   0  0  0  0  0  3  0  0  0  0  0  0
    8.2960   -0.4220   21.3560 C   0  0  0  0  0  3  0  0  0  0  0  0
    8.6650   -1.3180   22.5260 C   0  0  0  0  0  2  0  0  0  0  0  0
    9.4640    0.1030   24.4430 C   0  0  0  0  0  2  0  0  0  0  0  0
   10.6150    0.6730   24.8630 C   0  0  0  0  0  2  0  0  0  0  0  0
   14.0840   -1.7640   20.7510 Cl  0  0  0  0  0  0  0  0  0  0  0  0
    6.5650    0.6180   17.3620 N   0  0  0  0  0  2  0  0  0  0  0  0
    7.1780   -0.7970   20.7120 N   0  0  0  0  0  2  0  0  0  0  0  0
    9.6950   -0.6750   23.3320 N   0  0  0  0  0  0  0  0  0  0  0  0
    8.9560    0.5770   21.0660 O   0  0  0  0  0  1  0  0  0  0  0  0
  1  2  1  0
  2  9  1  0
  2 12  1  0
  3  4  1  0
  3  8  1  0
  3 16  1  0
  4  5  1  0
  5  6  1  0
  6  7  1  0
  6 17  1  0
  7  8  1  0
  8 20  1  0
  9 10  1  0
 10 18  1  0
 11 12  1  0
 11 18  1  0
 12 19  1  0
 13 14  1  0
 13 19  1  0
 13 21  1  0
 14 20  1  0
 15 16  1  0
 15 20  1  0
M  END
$$$$
