7gcu_A_LT9_404
     RDKit          3D

 22 24  0  0  0  0  0  0  0  0999 V2000
    5.1770    0.8080   21.4940 C   0  0  0  0  0  1  0  0  0  0  0  0
    5.7220    0.6310   20.0980 C   0  0  0  0  0  3  0  0  0  0  0  0
    8.7810   -2.3890   22.8800 C   0  0  0  0  0  2  0  0  0  0  0  0
   10.6530   -0.5550   22.8420 C   0  0  0  0  0  3  0  0  0  0  0  0
   11.1400    0.4510   23.6720 C   0  0  0  0  0  2  0  0  0  0  0  0
   12.4930    0.7600   23.6910 C   0  0  0  0  0  2  0  0  0  0  0  0
   13.3800    0.0600   22.8860 C   0  0  0  0  0  2  0  0  0  0  0  0
   12.8880   -0.9480   22.0770 C   0  0  0  0  0  3  0  0  0  0  0  0
   11.5440   -1.2600   22.0390 C   0  0  0  0  0  2  0  0  0  0  0  0
    5.1170    1.2570   19.0150 C   0  0  0  0  0  2  0  0  0  0  0  0
    5.6960    1.1660   17.7630 C   0  0  0  0  0  2  0  0  0  0  0  0
    7.3970   -0.1500   18.5420 C   0  0  0  0  0  2  0  0  0  0  0  0
    6.8970   -0.1050   19.8430 C   0  0  0  0  0  3  0  0  0  0  0  0
    8.6670   -0.1840   21.4680 C   0  0  0  0  0  3  0  0  0  0  0  0
    9.1590   -0.8550   22.7630 C   0  0  0  0  0  0  0  0  0  0  0  0
    8.3190   -0.6070   24.0800 C   0  0  0  0  0  2  0  0  0  0  0  0
    7.7550   -2.0070   23.9300 C   0  0  0  0  0  3  0  0  0  0  0  0
   13.9910   -1.8780   21.1060 Cl  0  0  0  0  0  0  0  0  0  0  0  0
    6.8200    0.4830   17.5150 N   0  0  0  0  0  2  0  0  0  0  0  0
    7.5680   -0.7280   20.9150 N   0  0  0  0  0  2  0  0  0  0  0  0
    9.2340    0.8010   21.0090 O   0  0  0  0  0  1  0  0  0  0  0  0
    6.8310   -2.5940   24.4450 O   0  0  0  0  0  1  0  0  0  0  0  0
  1  2  1  0
  2 10  1  0
  2 13  1  0
  3 15  1  0
  3 17  1  0
  4  5  1  0
  4  9  1  0
  4 15  1  0
  5  6  1  0
  6  7  1  0
  7  8  1  0
  8  9  1  0
  8 18  1  0
 10 11  1  0
 11 19  1  0
 12 13  1  0
 12 19  1  0
 13 20  1  0
 14 15  1  0
 14 20  1  0
 14 21  1  0
 15 16  1  0
 16 17  1  0
 17 22  1  0
M  END
$$$$
