7gcv_A_LUC_404
     RDKit          3D

 24 26  0  0  0  0  0  0  0  0999 V2000
    5.2200    1.0750   21.2010 C   0  0  0  0  0  1  0  0  0  0  0  0
    5.7340    0.9150   19.7930 C   0  0  0  0  0  3  0  0  0  0  0  0
   13.1050   -0.5980   22.0460 C   0  0  0  0  0  3  0  0  0  0  0  0
   13.5020    0.6530   22.4740 C   0  0  0  0  0  2  0  0  0  0  0  0
   12.5250    1.5360   22.9050 C   0  0  0  0  0  3  0  0  0  0  0  0
   13.1130    3.6370   22.1340 C   0  0  0  0  0  3  0  0  0  0  0  0
   14.2080    4.6300   22.5340 C   0  0  0  0  0  2  0  0  0  0  0  0
   13.2460    5.6850   22.0180 C   0  0  0  0  0  3  0  0  0  0  0  0
   11.1880    1.1770   22.9140 C   0  0  0  0  0  2  0  0  0  0  0  0
    5.0980    1.5540   18.7320 C   0  0  0  0  0  2  0  0  0  0  0  0
    5.6190    1.4410   17.4590 C   0  0  0  0  0  2  0  0  0  0  0  0
    7.3310    0.1000   18.1760 C   0  0  0  0  0  2  0  0  0  0  0  0
    6.8970    0.1720   19.4980 C   0  0  0  0  0  3  0  0  0  0  0  0
    8.7220    0.2860   21.1070 C   0  0  0  0  0  3  0  0  0  0  0  0
    9.3410   -0.4170   22.2990 C   0  0  0  0  0  2  0  0  0  0  0  0
   10.8050   -0.0770   22.4490 C   0  0  0  0  0  3  0  0  0  0  0  0
   11.7790   -0.9740   22.0260 C   0  0  0  0  0  2  0  0  0  0  0  0
   14.3160   -1.7500   21.5620 Cl  0  0  0  0  0  0  0  0  0  0  0  0
    6.7140    0.7250   17.1680 N   0  0  0  0  0  2  0  0  0  0  0  0
    7.6770   -0.3630   20.5490 N   0  0  0  0  0  2  0  0  0  0  0  0
   12.2110    4.8250   22.0180 N   0  0  0  0  0  2  0  0  0  0  0  0
    9.1330    1.3710   20.7080 O   0  0  0  0  0  1  0  0  0  0  0  0
   12.8620    2.8140   23.2820 O   0  0  0  0  0  0  0  0  0  0  0  0
   13.3370    6.8560   21.6670 O   0  0  0  0  0  1  0  0  0  0  0  0
  1  2  1  0
  2 10  1  0
  2 13  1  0
  3  4  1  0
  3 17  1  0
  3 18  1  0
  4  5  1  0
  5  9  1  0
  5 23  1  0
  6  7  1  0
  6 21  1  0
  6 23  1  0
  7  8  1  0
  8 21  1  0
  8 24  1  0
  9 16  1  0
 10 11  1  0
 11 19  1  0
 12 13  1  0
 12 19  1  0
 13 20  1  0
 14 15  1  0
 14 20  1  0
 14 22  1  0
 15 16  1  0
 16 17  1  0
M  END
$$$$
