7gcw_A_LV9_404
     RDKit          3D

 23 25  0  0  0  0  0  0  0  0999 V2000
    8.6080   -0.0800   21.1390 C   0  0  0  0  0  3  0  0  0  0  0  0
    6.7770    0.3310   19.5030 C   0  0  0  0  0  3  0  0  0  0  0  0
   13.8560   -3.0420   24.5870 C   0  0  0  0  0  2  0  0  0  0  0  0
   14.8680   -2.1550   24.2970 C   0  0  0  0  0  2  0  0  0  0  0  0
   14.6460   -1.1350   23.3930 C   0  0  0  0  0  2  0  0  0  0  0  0
   13.4110   -1.0020   22.7790 C   0  0  0  0  0  2  0  0  0  0  0  0
    9.5120   -1.6590   24.4020 C   0  0  0  0  0  2  0  0  0  0  0  0
    8.5100   -0.8080   25.1590 C   0  0  0  0  0  2  0  0  0  0  0  0
    9.4320    1.2150   24.2990 C   0  0  0  0  0  2  0  0  0  0  0  0
   10.4680    0.4600   23.4820 C   0  0  0  0  0  2  0  0  0  0  0  0
    5.6160    1.0880   19.4250 C   0  0  0  0  0  2  0  0  0  0  0  0
    5.2720    1.6770   18.2240 C   0  0  0  0  0  2  0  0  0  0  0  0
    6.0840    1.4620   17.1310 C   0  0  0  0  0  2  0  0  0  0  0  0
    7.5160    0.1540   18.3360 C   0  0  0  0  0  2  0  0  0  0  0  0
    9.9550   -0.9430   23.1160 C   0  0  0  0  0  0  0  0  0  0  0  0
   11.0400   -1.7580   22.3770 C   0  0  0  0  0  2  0  0  0  0  0  0
   12.3750   -1.8800   23.0730 C   0  0  0  0  0  3  0  0  0  0  0  0
   12.6150   -2.9050   23.9810 C   0  0  0  0  0  2  0  0  0  0  0  0
    7.2940    0.0540   20.7810 N   0  0  0  0  0  2  0  0  0  0  0  0
    7.1850    0.7020   17.1650 N   0  0  0  0  0  2  0  0  0  0  0  0
    8.7690   -0.8130   22.2590 N   0  0  0  0  0  2  0  0  0  0  0  0
    9.5370    0.4700   20.5390 O   0  0  0  0  0  1  0  0  0  0  0  0
    9.0460    0.4910   25.4790 O   0  0  0  0  0  0  0  0  0  0  0  0
  1 19  1  0
  1 21  1  0
  1 22  1  0
  2 11  1  0
  2 14  1  0
  2 19  1  0
  3  4  1  0
  3 18  1  0
  4  5  1  0
  5  6  1  0
  6 17  1  0
  7  8  1  0
  7 15  1  0
  8 23  1  0
  9 10  1  0
  9 23  1  0
 10 15  1  0
 11 12  1  0
 12 13  1  0
 13 20  1  0
 14 20  1  0
 15 16  1  0
 15 21  1  0
 16 17  1  0
 17 18  1  0
M  END
$$$$
