7gcx_A_LVM_404
     RDKit          3D

 17 19  0  0  0  0  0  0  0  0999 V2000
    5.9090    0.9420   21.3770 C   0  0  0  0  0  1  0  0  0  0  0  0
    6.3450    0.7380   19.9480 C   0  0  0  0  0  3  0  0  0  0  0  0
   13.2850   -1.3340   23.0330 C   0  0  0  0  0  0  0  0  0  0  0  0
   14.6360   -1.9720   23.0130 C   0  0  0  0  0  2  0  0  0  0  0  0
   14.3630   -0.7950   23.9130 C   0  0  0  0  0  2  0  0  0  0  0  0
   12.5270   -0.6390   21.8880 C   0  0  0  0  0  2  0  0  0  0  0  0
    5.6400    1.3200   18.9020 C   0  0  0  0  0  2  0  0  0  0  0  0
    6.0730    1.1390   17.6030 C   0  0  0  0  0  2  0  0  0  0  0  0
    7.8450   -0.1390   18.2760 C   0  0  0  0  0  2  0  0  0  0  0  0
    7.4840   -0.0160   19.6180 C   0  0  0  0  0  3  0  0  0  0  0  0
    9.4300   -0.1060   21.1050 C   0  0  0  0  0  3  0  0  0  0  0  0
    9.9310   -0.7740   22.3610 C   0  0  0  0  0  2  0  0  0  0  0  0
   11.2690   -1.4850   22.1950 C   0  0  0  0  0  3  0  0  0  0  0  0
   11.9470   -1.9230   23.5140 C   0  0  0  0  0  2  0  0  0  0  0  0
    7.1600    0.4280   17.2780 N   0  0  0  0  0  2  0  0  0  0  0  0
    8.2620   -0.5900   20.6470 N   0  0  0  0  0  2  0  0  0  0  0  0
   10.0240    0.8360   20.5940 O   0  0  0  0  0  1  0  0  0  0  0  0
  1  2  1  0
  2  7  1  0
  2 10  1  0
  3  4  1  0
  3  5  1  0
  3  6  1  0
  3 14  1  0
  4  5  1  0
  6 13  1  0
  7  8  1  0
  8 15  1  0
  9 10  1  0
  9 15  1  0
 10 16  1  0
 11 12  1  0
 11 16  1  0
 11 17  1  0
 12 13  1  0
 13 14  1  0
M  END
$$$$
