7gcy_A_LW6_405
     RDKit          3D

 11 12  0  0  0  0  0  0  0  0999 V2000
    4.7600   -5.2950   23.6450 C   0  0  0  0  0  2  0  0  0  0  0  0
    5.3900   -5.3450   22.4460 C   0  0  0  0  0  2  0  0  0  0  0  0
    6.1030   -4.1070   22.3020 C   0  0  0  0  0  3  0  0  0  0  0  0
    7.1390   -4.2240   20.0090 C   0  0  0  0  0  2  0  0  0  0  0  0
    6.9990   -3.5910   21.3500 C   0  0  0  0  0  3  0  0  0  0  0  0
    7.6720   -2.3970   21.6150 C   0  0  0  0  0  2  0  0  0  0  0  0
    7.4270   -1.6870   22.7830 C   0  0  0  0  0  2  0  0  0  0  0  0
    6.5140   -2.1510   23.7190 C   0  0  0  0  0  2  0  0  0  0  0  0
    5.8730   -3.3620   23.4770 C   0  0  0  0  0  3  0  0  0  0  0  0
    5.0340   -4.1060   24.2720 N   0  0  0  0  0  2  0  0  0  0  0  0
    6.3210   -4.9560   19.5170 O   0  0  0  0  0  1  0  0  0  0  0  0
  1  2  1  0
  1 10  1  0
  2  3  1  0
  3  5  1  0
  3  9  1  0
  4  5  1  0
  4 11  1  0
  5  6  1  0
  6  7  1  0
  7  8  1  0
  8  9  1  0
  9 10  1  0
M  END
$$$$
