7gd0_A_M4L_405
     RDKit          3D

 20 21  0  0  0  0  0  0  0  0999 V2000
   14.2090   -2.0660   21.1380 Br  0  0  0  0  0  0  0  0  0  0  0  0
    4.4260    1.4100   21.5020 C   0  0  0  0  0  1  0  0  0  0  0  0
    5.9210    0.6340   19.7950 C   0  0  0  0  0  3  0  0  0  0  0  0
   12.5720    0.6390   23.7920 C   0  0  0  0  0  2  0  0  0  0  0  0
   13.4700   -0.0310   22.9750 C   0  0  0  0  0  2  0  0  0  0  0  0
   12.9830   -0.9930   22.1120 C   0  0  0  0  0  3  0  0  0  0  0  0
   11.6320   -1.2580   22.0000 C   0  0  0  0  0  2  0  0  0  0  0  0
    5.2300    1.2830   18.7830 C   0  0  0  0  0  2  0  0  0  0  0  0
    5.7280    1.1700   17.5000 C   0  0  0  0  0  2  0  0  0  0  0  0
    7.4710   -0.1590   18.1640 C   0  0  0  0  0  2  0  0  0  0  0  0
    7.0770   -0.1150   19.4980 C   0  0  0  0  0  3  0  0  0  0  0  0
    8.7320   -0.0330   21.2850 C   0  0  0  0  0  3  0  0  0  0  0  0
    9.2420   -0.7020   22.5590 C   0  0  0  0  0  3  0  0  0  0  0  0
   10.7320   -0.5610   22.7970 C   0  0  0  0  0  3  0  0  0  0  0  0
   11.2150    0.3660   23.7110 C   0  0  0  0  0  2  0  0  0  0  0  0
    6.8230    0.4700   17.1780 N   0  0  0  0  0  2  0  0  0  0  0  0
    7.7710   -0.6840   20.5880 N   0  0  0  0  0  2  0  0  0  0  0  0
    5.5980    0.6840   21.1240 O   0  0  0  0  0  0  0  0  0  0  0  0
    9.2210    1.0360   20.9270 O   0  0  0  0  0  1  0  0  0  0  0  0
    8.7190   -2.0120   22.7470 O   0  0  0  0  0  1  0  0  0  0  0  0
  1  6  1  0
  2 18  1  0
  3  8  1  0
  3 11  1  0
  3 18  1  0
  4  5  1  0
  4 15  1  0
  5  6  1  0
  6  7  1  0
  7 14  1  0
  8  9  1  0
  9 16  1  0
 10 11  1  0
 10 16  1  0
 11 17  1  0
 12 13  1  0
 12 17  1  0
 12 19  1  0
 13 14  1  0
 13 20  1  0
 14 15  1  0
M  END
$$$$
