7gd2_A_M26_404
     RDKit          3D

 52137  0  0  0  0  0  0  0  0999 V2000
   14.1430   -1.8390   21.1760 Br  0  0  0  0  0  3  0  0  0  0  0  0
   14.1950   -1.8020   21.1060 Br  0  0  0  0  0  3  0  0  0  0  0  0
    7.1900    1.0420   24.5880 C   0  0  0  0  0  2  0  0  0  0  0  0
    7.2860   -1.4230   24.2900 C   0  0  0  0  0  2  0  0  0  0  0  0
    9.2270   -0.0820   24.1060 C   0  0  0  0  0  5  0  0  0  0  0  0
    9.3190   -0.2480   24.0740 C   0  0  0  0  0  5  0  0  0  0  0  0
    4.3980    0.5880   22.0900 C   0  0  0  0  0  7  0  0  0  0  0  0
    4.4020    0.5810   22.0740 C   0  0  0  0  0  7  0  0  0  0  0  0
    5.3800   -0.0650   21.3830 C   0  0  0  0  0  5  0  0  0  0  0  0
    5.3820   -0.0720   21.3630 C   0  0  0  0  0  5  0  0  0  0  0  0
    5.7190    0.4260   20.1250 C   0  0  0  0  0  7  0  0  0  0  0  0
    5.7240    0.4250   20.1080 C   0  0  0  0  0  7  0  0  0  0  0  0
   11.1110    0.5970   22.6130 C   0  0  0  0  0  7  0  0  0  0  0  0
   11.1210    0.5550   22.5900 C   0  0  0  0  0  7  0  0  0  0  0  0
   11.7820    1.7320   22.9170 C   0  0  0  0  0  5  0  0  0  0  0  0
   11.7930    1.7640   22.9300 C   0  0  0  0  0  5  0  0  0  0  0  0
   13.1510    1.8490   22.7360 C   0  0  0  0  0  5  0  0  0  0  0  0
   13.1620    1.8580   22.7390 C   0  0  0  0  0  5  0  0  0  0  0  0
   13.8760    0.7800   22.2370 C   0  0  0  0  0  5  0  0  0  0  0  0
   13.8850    0.7860   22.2300 C   0  0  0  0  0  5  0  0  0  0  0  0
   13.1900   -0.3750   21.9220 C   0  0  0  0  0  7  0  0  0  0  0  0
   13.2190   -0.3760   21.8970 C   0  0  0  0  0  7  0  0  0  0  0  0
   11.8230   -0.4870   22.1070 C   0  0  0  0  0  5  0  0  0  0  0  0
   11.8540   -0.5120   22.0770 C   0  0  0  0  0  5  0  0  0  0  0  0
    9.6040    0.5250   22.7640 C   0  0  0  0  0  7  0  0  0  0  0  0
    9.6180    0.4490   22.7560 C   0  0  0  0  0  7  0  0  0  0  0  0
    8.6370    0.4290   20.5100 C   0  0  0  0  0  7  0  0  0  0  0  0
    8.6510    0.3980   20.4990 C   0  0  0  0  0  7  0  0  0  0  0  0
    8.0750   -0.4640   19.4280 C   0  0  0  0  0  5  0  0  0  0  0  0
    8.0790   -0.4750   19.4040 C   0  0  0  0  0  5  0  0  0  0  0  0
    6.6380   -0.0870   19.0460 C   0  0  0  0  0  7  0  0  0  0  0  0
    6.6440   -0.0820   19.0290 C   0  0  0  0  0  7  0  0  0  0  0  0
    6.5690    1.0290   18.0100 C   0  0  0  0  0  7  0  0  0  0  0  0
    6.5890    1.0460   18.0060 C   0  0  0  0  0  7  0  0  0  0  0  0
    5.0830    1.5710   19.6490 C   0  0  0  0  0  7  0  0  0  0  0  0
    5.0960    1.5780   19.6420 C   0  0  0  0  0  7  0  0  0  0  0  0
    4.0900    2.2090   20.3890 C   0  0  0  0  0  5  0  0  0  0  0  0
    4.1040    2.2140   20.3830 C   0  0  0  0  0  5  0  0  0  0  0  0
    3.7410    1.7020   21.6290 C   0  0  0  0  0  5  0  0  0  0  0  0
    3.7500    1.7010   21.6190 C   0  0  0  0  0  5  0  0  0  0  0  0
    4.0430    0.0710   23.2840 F   0  0  0  0  0  3  0  0  0  0  0  0
    4.0480    0.0890   23.3070 F   0  0  0  0  0  3  0  0  0  0  0  0
    8.9720   -0.1770   21.6520 N   0  0  0  0  0  5  0  0  0  0  0  0
    8.9910   -0.2310   21.6270 N   0  0  0  0  0  5  0  0  0  0  0  0
    5.6230    1.9140   18.4100 N   0  0  0  0  0  5  0  0  0  0  0  0
    5.6450    1.9300   18.4090 N   0  0  0  0  0  5  0  0  0  0  0  0
    7.8220   -0.1870   24.2450 O   0  0  0  0  0  5  0  0  0  0  0  0
    7.9420   -0.1670   24.3760 O   0  0  0  0  0  5  0  0  0  0  0  0
    8.7910    1.6340   20.3310 O   0  0  0  0  0  3  0  0  0  0  0  0
    8.8150    1.6040   20.3390 O   0  0  0  0  0  3  0  0  0  0  0  0
    7.2790    1.1350   17.0160 O   0  0  0  0  0  3  0  0  0  0  0  0
    7.3090    1.1600   17.0200 O   0  0  0  0  0  3  0  0  0  0  0  0
  1  2  1  0
  1 21  1  0
  1 22  1  0
  2 21  1  0
  2 22  1  0
  3 47  1  0
  3 48  1  0
  4 47  1  0
  4 48  1  0
  5  6  1  0
  5 25  1  0
  5 26  1  0
  5 47  1  0
  5 48  1  0
  6 25  1  0
  6 26  1  0
  6 47  1  0
  6 48  1  0
  7  8  1  0
  7  9  1  0
  7 10  1  0
  7 39  1  0
  7 40  1  0
  7 41  1  0
  7 42  1  0
  8  9  1  0
  8 10  1  0
  8 39  1  0
  8 40  1  0
  8 41  1  0
  8 42  1  0
  9 10  1  0
  9 11  1  0
  9 12  1  0
 10 11  1  0
 10 12  1  0
 11 12  1  0
 11 31  1  0
 11 32  1  0
 11 35  1  0
 11 36  1  0
 12 31  1  0
 12 32  1  0
 12 35  1  0
 12 36  1  0
 13 14  1  0
 13 15  1  0
 13 16  1  0
 13 23  1  0
 13 24  1  0
 13 25  1  0
 13 26  1  0
 14 15  1  0
 14 16  1  0
 14 23  1  0
 14 24  1  0
 14 25  1  0
 14 26  1  0
 15 16  1  0
 15 17  1  0
 15 18  1  0
 16 17  1  0
 16 18  1  0
 17 18  1  0
 17 19  1  0
 17 20  1  0
 18 19  1  0
 18 20  1  0
 19 20  1  0
 19 21  1  0
 19 22  1  0
 20 21  1  0
 20 22  1  0
 21 22  1  0
 21 23  1  0
 21 24  1  0
 22 23  1  0
 22 24  1  0
 23 24  1  0
 25 26  1  0
 25 43  1  0
 25 44  1  0
 26 43  1  0
 26 44  1  0
 27 28  1  0
 27 29  1  0
 27 30  1  0
 27 43  1  0
 27 44  1  0
 27 49  1  0
 27 50  1  0
 28 29  1  0
 28 30  1  0
 28 43  1  0
 28 44  1  0
 28 49  1  0
 28 50  1  0
 29 30  1  0
 29 31  1  0
 29 32  1  0
 30 31  1  0
 30 32  1  0
 31 32  1  0
 31 33  1  0
 31 34  1  0
 32 33  1  0
 32 34  1  0
 33 34  1  0
 33 45  1  0
 33 46  1  0
 33 51  1  0
 33 52  1  0
 34 45  1  0
 34 46  1  0
 34 51  1  0
 34 52  1  0
 35 36  1  0
 35 37  1  0
 35 38  1  0
 35 45  1  0
 35 46  1  0
 36 37  1  0
 36 38  1  0
 36 45  1  0
 36 46  1  0
 37 38  1  0
 37 39  1  0
 37 40  1  0
 38 39  1  0
 38 40  1  0
 39 40  1  0
 41 42  1  0
 43 44  1  0
 45 46  1  0
 47 48  1  0
 49 50  1  0
 51 52  1  0
M  END
$$$$
