7gd3_A_Y6J_404
     RDKit          3D

 31 35  0  0  0  0  0  0  0  0999 V2000
    9.4240    0.0710   21.3380 C   0  0  0  0  0  3  0  0  0  0  0  0
    8.4590   -0.8910   20.6440 C   0  0  0  0  0  2  0  0  0  0  0  0
    6.4620    0.5160   19.9500 C   0  0  0  0  0  3  0  0  0  0  0  0
    5.7600    0.8420   21.1020 C   0  0  0  0  0  2  0  0  0  0  0  0
    4.6080    1.6060   20.9620 C   0  0  0  0  0  2  0  0  0  0  0  0
    4.1820    2.0350   19.7060 C   0  0  0  0  0  2  0  0  0  0  0  0
    4.8940    1.7050   18.5600 C   0  0  0  0  0  2  0  0  0  0  0  0
    6.0440    0.9290   18.6890 C   0  0  0  0  0  3  0  0  0  0  0  0
   11.1570    0.3570   23.0080 C   0  0  0  0  0  2  0  0  0  0  0  0
   12.3310   -0.5480   23.2900 C   0  0  0  0  0  3  0  0  0  0  0  0
   12.6450   -0.9850   24.5450 C   0  0  0  0  0  2  0  0  0  0  0  0
   14.1570   -1.9400   22.8490 C   0  0  0  0  0  2  0  0  0  0  0  0
   13.2090   -1.0970   22.3130 C   0  0  0  0  0  2  0  0  0  0  0  0
    9.4700   -1.4330   23.3030 C   0  0  0  0  0  3  0  0  0  0  0  0
    9.8740   -2.7460   23.0630 C   0  0  0  0  0  2  0  0  0  0  0  0
    9.4370   -3.7720   23.8820 C   0  0  0  0  0  2  0  0  0  0  0  0
    8.5850   -3.5060   24.9500 C   0  0  0  0  0  3  0  0  0  0  0  0
    7.3690   -4.6080   26.8390 C   0  0  0  0  0  3  0  0  0  0  0  0
    6.8090   -5.9620   27.1960 C   0  0  0  0  0  3  0  0  0  0  0  0
    5.3910   -6.2540   26.7800 C   0  0  0  0  0  2  0  0  0  0  0  0
    5.6940   -6.0040   28.2080 C   0  0  0  0  0  2  0  0  0  0  0  0
    8.1820   -2.1940   25.1920 C   0  0  0  0  0  2  0  0  0  0  0  0
    8.6190   -1.1680   24.3730 C   0  0  0  0  0  2  0  0  0  0  0  0
    7.5920   -0.2040   19.7080 N   0  0  0  0  0  0  0  0  0  0  0  0
    6.9220    0.4360   17.7520 N   0  0  0  0  0  2  0  0  0  0  0  0
    7.8420   -0.2430   18.3740 N   0  0  0  0  0  2  0  0  0  0  0  0
    9.9810   -0.3510   22.5140 N   0  0  0  0  0  0  0  0  0  0  0  0
    8.1530   -4.6030   25.7340 N   0  0  0  0  0  2  0  0  0  0  0  0
    9.6830    1.1590   20.8450 O   0  0  0  0  0  1  0  0  0  0  0  0
    7.1290   -3.6110   27.5150 O   0  0  0  0  0  1  0  0  0  0  0  0
   13.9750   -2.0590   24.5490 S   0  0  0  0  0  0  0  0  0  0  0  0
  1  2  1  0
  1 27  1  0
  1 29  1  0
  2 24  1  0
  3  4  1  0
  3  8  1  0
  3 24  1  0
  4  5  1  0
  5  6  1  0
  6  7  1  0
  7  8  1  0
  8 25  1  0
  9 10  1  0
  9 27  1  0
 10 11  1  0
 10 13  1  0
 11 31  1  0
 12 13  1  0
 12 31  1  0
 14 15  1  0
 14 23  1  0
 14 27  1  0
 15 16  1  0
 16 17  1  0
 17 22  1  0
 17 28  1  0
 18 19  1  0
 18 28  1  0
 18 30  1  0
 19 20  1  0
 19 21  1  0
 20 21  1  0
 22 23  1  0
 24 26  1  0
 25 26  1  0
M  END
$$$$
