7gd4_A_R30_405
     RDKit          3D

 30 33  0  0  0  0  0  0  0  0999 V2000
    9.2270    0.3770   21.3710 C   0  0  0  0  0  3  0  0  0  0  0  0
    9.4080   -1.0710   23.3620 C   0  0  0  0  0  3  0  0  0  0  0  0
    9.8210   -2.3590   23.0370 C   0  0  0  0  0  2  0  0  0  0  0  0
    9.6060   -3.4030   23.9150 C   0  0  0  0  0  2  0  0  0  0  0  0
    8.9910   -3.1770   25.1410 C   0  0  0  0  0  3  0  0  0  0  0  0
    8.3560   -4.3930   27.2390 C   0  0  0  0  0  3  0  0  0  0  0  0
    8.6350   -5.7050   27.9210 C   0  0  0  0  0  2  0  0  0  0  0  0
    7.4200   -6.2830   28.6120 C   0  0  0  0  0  1  0  0  0  0  0  0
    8.5190   -1.9020   25.4410 C   0  0  0  0  0  2  0  0  0  0  0  0
    8.7200   -0.8570   24.5550 C   0  0  0  0  0  2  0  0  0  0  0  0
   10.9610    0.8230   23.0020 C   0  0  0  0  0  2  0  0  0  0  0  0
   12.2180   -0.0020   23.1030 C   0  0  0  0  0  3  0  0  0  0  0  0
   12.6270   -0.7950   22.0710 C   0  0  0  0  0  2  0  0  0  0  0  0
   14.0120   -1.1280   24.0880 C   0  0  0  0  0  2  0  0  0  0  0  0
   13.0270   -0.1850   24.2590 C   0  0  0  0  0  2  0  0  0  0  0  0
    8.3170   -0.6720   20.7260 C   0  0  0  0  0  2  0  0  0  0  0  0
    6.0080    0.9740   18.5090 C   0  0  0  0  0  3  0  0  0  0  0  0
    6.3400    0.6390   19.8180 C   0  0  0  0  0  3  0  0  0  0  0  0
    5.5620    1.0280   20.8990 C   0  0  0  0  0  2  0  0  0  0  0  0
    4.4160    1.7680   20.6340 C   0  0  0  0  0  2  0  0  0  0  0  0
    4.0730    2.1140   19.3270 C   0  0  0  0  0  2  0  0  0  0  0  0
    4.8680    1.7290   18.2540 C   0  0  0  0  0  2  0  0  0  0  0  0
    9.8130    0.0390   22.5570 N   0  0  0  0  0  0  0  0  0  0  0  0
    8.9990   -4.2620   26.0540 N   0  0  0  0  0  2  0  0  0  0  0  0
    7.4770   -0.0990   19.6950 N   0  0  0  0  0  0  0  0  0  0  0  0
    7.8090   -0.2300   18.3850 N   0  0  0  0  0  2  0  0  0  0  0  0
    6.9390    0.4140   17.6630 N   0  0  0  0  0  2  0  0  0  0  0  0
    9.4240    1.4520   20.8310 O   0  0  0  0  0  1  0  0  0  0  0  0
    7.6100   -3.5450   27.7230 O   0  0  0  0  0  1  0  0  0  0  0  0
   13.9480   -1.7810   22.4960 S   0  0  0  0  0  0  0  0  0  0  0  0
  1 16  1  0
  1 23  1  0
  1 28  1  0
  2  3  1  0
  2 10  1  0
  2 23  1  0
  3  4  1  0
  4  5  1  0
  5  9  1  0
  5 24  1  0
  6  7  1  0
  6 24  1  0
  6 29  1  0
  7  8  1  0
  9 10  1  0
 11 12  1  0
 11 23  1  0
 12 13  1  0
 12 15  1  0
 13 30  1  0
 14 15  1  0
 14 30  1  0
 16 25  1  0
 17 18  1  0
 17 22  1  0
 17 27  1  0
 18 19  1  0
 18 25  1  0
 19 20  1  0
 20 21  1  0
 21 22  1  0
 25 26  1  0
 26 27  1  0
M  END
$$$$
