7gd5_A_M0X_405
     RDKit          3D

 28 31  0  0  0  0  0  0  0  0999 V2000
    9.4840   -5.8940   24.9200 C   0  0  0  0  0  1  0  0  0  0  0  0
    8.1910   -4.8910   26.7030 C   0  0  0  0  0  1  0  0  0  0  0  0
   12.0990    0.7300   23.6220 C   0  0  0  0  0  2  0  0  0  0  0  0
   13.0850    2.8690   22.8820 C   0  0  0  0  0  2  0  0  0  0  0  0
   11.7130    2.9220   23.0080 C   0  0  0  0  0  2  0  0  0  0  0  0
    8.8570    0.4130   21.5530 C   0  0  0  0  0  3  0  0  0  0  0  0
    8.0190   -0.6870   20.8950 C   0  0  0  0  0  2  0  0  0  0  0  0
    5.6670    0.9190   18.6960 C   0  0  0  0  0  3  0  0  0  0  0  0
    6.0010    0.5730   20.0010 C   0  0  0  0  0  3  0  0  0  0  0  0
    5.2340    0.9640   21.0880 C   0  0  0  0  0  2  0  0  0  0  0  0
    4.0980    1.7190   20.8320 C   0  0  0  0  0  2  0  0  0  0  0  0
    3.7540    2.0790   19.5310 C   0  0  0  0  0  2  0  0  0  0  0  0
    9.1290   -3.4700   24.9250 C   0  0  0  0  0  3  0  0  0  0  0  0
    4.5340    1.6880   18.4510 C   0  0  0  0  0  2  0  0  0  0  0  0
    8.8080   -2.2730   25.5720 C   0  0  0  0  0  2  0  0  0  0  0  0
    8.8790   -1.0650   24.9000 C   0  0  0  0  0  2  0  0  0  0  0  0
    9.1460   -1.0300   23.5360 C   0  0  0  0  0  3  0  0  0  0  0  0
    9.5440   -2.2010   22.9060 C   0  0  0  0  0  2  0  0  0  0  0  0
    9.5020   -3.4090   23.5770 C   0  0  0  0  0  2  0  0  0  0  0  0
    9.6750    1.3900   23.5980 C   0  0  0  0  0  2  0  0  0  0  0  0
   11.1440    1.6850   23.4310 C   0  0  0  0  0  3  0  0  0  0  0  0
    9.1160   -4.6670   25.6010 N   0  0  0  0  0  0  0  0  0  0  0  0
    9.2590    0.2120   22.8440 N   0  0  0  0  0  0  0  0  0  0  0  0
    7.1500   -0.1450   19.8710 N   0  0  0  0  0  0  0  0  0  0  0  0
    7.4900   -0.2460   18.5610 N   0  0  0  0  0  2  0  0  0  0  0  0
    6.6120    0.3940   17.8460 N   0  0  0  0  0  2  0  0  0  0  0  0
    9.0810    1.4550   20.9570 O   0  0  0  0  0  1  0  0  0  0  0  0
   13.6720    1.3060   23.2920 S   0  0  0  0  0  0  0  0  0  0  0  0
  1 22  1  0
  2 22  1  0
  3 21  1  0
  3 28  1  0
  4  5  1  0
  4 28  1  0
  5 21  1  0
  6  7  1  0
  6 23  1  0
  6 27  1  0
  7 24  1  0
  8  9  1  0
  8 14  1  0
  8 26  1  0
  9 10  1  0
  9 24  1  0
 10 11  1  0
 11 12  1  0
 12 14  1  0
 13 15  1  0
 13 19  1  0
 13 22  1  0
 15 16  1  0
 16 17  1  0
 17 18  1  0
 17 23  1  0
 18 19  1  0
 20 21  1  0
 20 23  1  0
 24 25  1  0
 25 26  1  0
M  END
$$$$
