7gd8_A_KU6_405
     RDKit          3D

 22 25  0  0  0  0  0  0  0  0999 V2000
   13.2460   -0.9200   21.9420 C   0  0  0  0  0  3  0  0  0  0  0  0
   13.6750   -0.0530   22.9210 C   0  0  0  0  0  2  0  0  0  0  0  0
    5.2500    0.9160   20.0510 C   0  0  0  0  0  3  0  0  0  0  0  0
    5.5830    2.0510   20.9560 C   0  0  0  0  0  2  0  0  0  0  0  0
    4.5290    2.2110   19.9080 C   0  0  0  0  0  2  0  0  0  0  0  0
   10.9520   -0.5840   22.5620 C   0  0  0  0  0  3  0  0  0  0  0  0
   11.9080   -1.2020   21.7570 C   0  0  0  0  0  2  0  0  0  0  0  0
   12.7430    0.5450   23.7500 C   0  0  0  0  0  2  0  0  0  0  0  0
   11.3920    0.2900   23.5600 C   0  0  0  0  0  3  0  0  0  0  0  0
    9.1670    1.0800   23.9520 C   0  0  0  0  0  2  0  0  0  0  0  0
    8.6240   -0.2470   23.4900 C   0  0  0  0  0  2  0  0  0  0  0  0
    9.4690   -0.7770   22.3110 C   0  0  0  0  0  3  0  0  0  0  0  0
    9.1960   -0.0330   21.0020 C   0  0  0  0  0  3  0  0  0  0  0  0
    7.5480    0.3020   19.2950 C   0  0  0  0  0  3  0  0  0  0  0  0
    6.1720    0.6390   17.6750 C   0  0  0  0  0  2  0  0  0  0  0  0
   14.4190   -1.6850   20.9060 Cl  0  0  0  0  0  0  0  0  0  0  0  0
    7.9470   -0.1490   20.5190 N   0  0  0  0  0  2  0  0  0  0  0  0
    8.2370    0.2600   18.1650 N   0  0  0  0  0  2  0  0  0  0  0  0
    7.3420    0.4740   17.1300 N   0  0  0  0  0  2  0  0  0  0  0  0
    6.2470    0.5390   19.0320 N   0  0  0  0  0  0  0  0  0  0  0  0
   10.5350    0.9680   24.3960 O   0  0  0  0  0  0  0  0  0  0  0  0
    9.9230    0.8670   20.5990 O   0  0  0  0  0  1  0  0  0  0  0  0
  1  2  1  0
  1  7  1  0
  1 16  1  0
  2  8  1  0
  3  4  1  0
  3  5  1  0
  3 20  1  0
  4  5  1  0
  6  7  1  0
  6  9  1  0
  6 12  1  0
  8  9  1  0
  9 21  1  0
 10 11  1  0
 10 21  1  0
 11 12  1  0
 12 13  1  0
 13 17  1  0
 13 22  1  0
 14 17  1  0
 14 18  1  0
 14 20  1  0
 15 19  1  0
 15 20  1  0
 18 19  1  0
M  END
$$$$
