7gdi_A_M5I_404
     RDKit          3D

 18 19  0  0  0  0  0  0  0  0999 V2000
    5.2250    1.3220   21.1060 C   0  0  0  0  0  1  0  0  0  0  0  0
    5.7880    1.0170   19.7410 C   0  0  0  0  0  3  0  0  0  0  0  0
   12.4700    1.0970   22.9800 C   0  0  0  0  0  2  0  0  0  0  0  0
   13.5400    0.2510   22.7440 C   0  0  0  0  0  2  0  0  0  0  0  0
   13.3020   -0.9790   22.1650 C   0  0  0  0  0  3  0  0  0  0  0  0
   12.0420   -1.3590   21.7520 C   0  0  0  0  0  2  0  0  0  0  0  0
    5.3110    1.7040   18.6300 C   0  0  0  0  0  2  0  0  0  0  0  0
    5.8720    1.4650   17.3920 C   0  0  0  0  0  2  0  0  0  0  0  0
    7.2860   -0.1010   18.2570 C   0  0  0  0  0  2  0  0  0  0  0  0
    6.8150    0.0800   19.5450 C   0  0  0  0  0  3  0  0  0  0  0  0
    7.4290   -0.6670   20.7060 C   0  0  0  0  0  2  0  0  0  0  0  0
    8.7800   -0.0220   20.9420 C   0  0  0  0  0  3  0  0  0  0  0  0
   10.9780   -0.4920   21.9670 C   0  0  0  0  0  3  0  0  0  0  0  0
   11.1880    0.7240   22.6090 C   0  0  0  0  0  2  0  0  0  0  0  0
   14.5900   -2.1420   22.1000 Cl  0  0  0  0  0  0  0  0  0  0  0  0
    6.8470    0.5720   17.1890 N   0  0  0  0  0  2  0  0  0  0  0  0
    9.7000   -0.8410   21.4860 N   0  0  0  0  0  2  0  0  0  0  0  0
    8.9870    1.1580   20.6720 O   0  0  0  0  0  1  0  0  0  0  0  0
  1  2  1  0
  2  7  1  0
  2 10  1  0
  3  4  1  0
  3 14  1  0
  4  5  1  0
  5  6  1  0
  5 15  1  0
  6 13  1  0
  7  8  1  0
  8 16  1  0
  9 10  1  0
  9 16  1  0
 10 11  1  0
 11 12  1  0
 12 17  1  0
 12 18  1  0
 13 14  1  0
 13 17  1  0
M  END
$$$$
