7gdj_A_M50_404
     RDKit          3D

 18 19  0  0  0  0  0  0  0  0999 V2000
    5.8620    1.1770   21.3220 C   0  0  0  0  0  1  0  0  0  0  0  0
    6.2950    0.9130   19.9030 C   0  0  0  0  0  3  0  0  0  0  0  0
   14.0520   -0.2080   22.6350 C   0  0  0  0  0  2  0  0  0  0  0  0
   13.6210   -1.1110   21.6860 C   0  0  0  0  0  3  0  0  0  0  0  0
   12.2880   -1.4610   21.5680 C   0  0  0  0  0  2  0  0  0  0  0  0
    5.6120    1.4980   18.8420 C   0  0  0  0  0  2  0  0  0  0  0  0
    7.7460   -0.0090   18.2560 C   0  0  0  0  0  2  0  0  0  0  0  0
    7.4120    0.1080   19.6030 C   0  0  0  0  0  3  0  0  0  0  0  0
    9.3640   -0.2530   21.0760 C   0  0  0  0  0  3  0  0  0  0  0  0
    9.8710   -1.1350   22.2010 C   0  0  0  0  0  2  0  0  0  0  0  0
   11.3490   -0.9020   22.4320 C   0  0  0  0  0  3  0  0  0  0  0  0
   11.7860   -0.0360   23.4260 C   0  0  0  0  0  2  0  0  0  0  0  0
   13.1240    0.3140   23.5260 C   0  0  0  0  0  2  0  0  0  0  0  0
   14.7940   -1.8980   20.6600 Cl  0  0  0  0  0  0  0  0  0  0  0  0
    5.9800    1.3410   17.5750 N   0  0  0  0  0  2  0  0  0  0  0  0
    7.0710    0.5720   17.2790 N   0  0  0  0  0  2  0  0  0  0  0  0
    8.1180   -0.5440   20.6450 N   0  0  0  0  0  2  0  0  0  0  0  0
   10.0490    0.6540   20.6100 O   0  0  0  0  0  1  0  0  0  0  0  0
  1  2  1  0
  2  6  1  0
  2  8  1  0
  3  4  1  0
  3 13  1  0
  4  5  1  0
  4 14  1  0
  5 11  1  0
  6 15  1  0
  7  8  1  0
  7 16  1  0
  8 17  1  0
  9 10  1  0
  9 17  1  0
  9 18  1  0
 10 11  1  0
 11 12  1  0
 12 13  1  0
 15 16  1  0
M  END
$$$$
