7gdl_A_MKI_404
     RDKit          3D

 19 20  0  0  0  0  0  0  0  0999 V2000
    6.8460   -1.8190   21.4020 C   0  0  0  0  0  1  0  0  0  0  0  0
    8.6040   -0.1230   21.4630 C   0  0  0  0  0  3  0  0  0  0  0  0
    7.1740   -0.0120   18.6190 C   0  0  0  0  0  2  0  0  0  0  0  0
    5.4610    1.2570   17.8010 C   0  0  0  0  0  2  0  0  0  0  0  0
    4.9350    1.4640   19.0600 C   0  0  0  0  0  2  0  0  0  0  0  0
    5.5700    0.9130   20.1670 C   0  0  0  0  0  3  0  0  0  0  0  0
    5.0490    1.1740   21.5580 C   0  0  0  0  0  1  0  0  0  0  0  0
    9.2540   -0.9350   22.5680 C   0  0  0  0  0  2  0  0  0  0  0  0
   10.7170   -0.5840   22.7070 C   0  0  0  0  0  3  0  0  0  0  0  0
   11.1410    0.3690   23.6250 C   0  0  0  0  0  2  0  0  0  0  0  0
   12.4830    0.7030   23.7330 C   0  0  0  0  0  2  0  0  0  0  0  0
   13.4230    0.0860   22.9220 C   0  0  0  0  0  2  0  0  0  0  0  0
   12.9920   -0.8670   22.0200 C   0  0  0  0  0  3  0  0  0  0  0  0
   11.6600   -1.1980   21.8910 C   0  0  0  0  0  2  0  0  0  0  0  0
    6.7120    0.1490   19.9240 C   0  0  0  0  0  3  0  0  0  0  0  0
   14.1680   -1.7660   21.1100 Cl  0  0  0  0  0  0  0  0  0  0  0  0
    7.4210   -0.5500   20.9520 N   0  0  0  0  0  0  0  0  0  0  0  0
    6.5630    0.5360   17.5650 N   0  0  0  0  0  2  0  0  0  0  0  0
    9.1560    0.8900   21.0470 O   0  0  0  0  0  1  0  0  0  0  0  0
  1 17  1  0
  2  8  1  0
  2 17  1  0
  2 19  1  0
  3 15  1  0
  3 18  1  0
  4  5  1  0
  4 18  1  0
  5  6  1  0
  6  7  1  0
  6 15  1  0
  8  9  1  0
  9 10  1  0
  9 14  1  0
 10 11  1  0
 11 12  1  0
 12 13  1  0
 13 14  1  0
 13 16  1  0
 15 17  1  0
M  END
$$$$
