7gdm_A_MQ3_404
     RDKit          3D

 18 19  0  0  0  0  0  0  0  0999 V2000
    9.7940    1.0180   23.6710 C   0  0  0  0  0  1  0  0  0  0  0  0
   10.2300   -0.1140   22.7390 C   0  0  0  0  0  3  0  0  0  0  0  0
    8.1100   -0.1490   18.5640 C   0  0  0  0  0  2  0  0  0  0  0  0
    6.2890    1.0090   17.8130 C   0  0  0  0  0  2  0  0  0  0  0  0
    5.8550    1.2680   19.0990 C   0  0  0  0  0  2  0  0  0  0  0  0
    6.6040    0.8180   20.1810 C   0  0  0  0  0  3  0  0  0  0  0  0
    6.2100    1.1960   21.5860 C   0  0  0  0  0  1  0  0  0  0  0  0
   11.7700   -0.3060   22.7140 C   0  0  0  0  0  3  0  0  0  0  0  0
   12.3660   -0.5710   24.1070 C   0  0  0  0  0  2  0  0  0  0  0  0
   13.8900   -0.7100   24.0770 C   0  0  0  0  0  2  0  0  0  0  0  0
   14.3300   -1.7860   23.1000 C   0  0  0  0  0  2  0  0  0  0  0  0
   13.7690   -1.5100   21.7110 C   0  0  0  0  0  2  0  0  0  0  0  0
   12.2430   -1.3920   21.7370 C   0  0  0  0  0  2  0  0  0  0  0  0
    9.7150    0.2500   21.3500 C   0  0  0  0  0  3  0  0  0  0  0  0
    7.7700    0.0650   19.9000 C   0  0  0  0  0  3  0  0  0  0  0  0
    8.5960   -0.3940   20.9630 N   0  0  0  0  0  2  0  0  0  0  0  0
    7.4000    0.3220   17.5330 N   0  0  0  0  0  2  0  0  0  0  0  0
   10.2330    1.1430   20.6980 O   0  0  0  0  0  1  0  0  0  0  0  0
  1  2  1  0
  2  8  1  0
  2 14  1  0
  3 15  1  0
  3 17  1  0
  4  5  1  0
  4 17  1  0
  5  6  1  0
  6  7  1  0
  6 15  1  0
  8  9  1  0
  8 13  1  0
  9 10  1  0
 10 11  1  0
 11 12  1  0
 12 13  1  0
 14 16  1  0
 14 18  1  0
 15 16  1  0
M  END
$$$$
