7gdn_A_MU3_405
     RDKit          3D

 21 24  0  0  0  0  0  0  0  0999 V2000
    8.4050    0.3160   21.5200 C   0  0  0  0  0  3  0  0  0  0  0  0
    7.0170    0.0440   19.5340 C   0  0  0  0  0  3  0  0  0  0  0  0
   12.3290    0.4390   23.9520 C   0  0  0  0  0  2  0  0  0  0  0  0
   13.0610   -0.2170   22.9710 C   0  0  0  0  0  2  0  0  0  0  0  0
   12.4200   -0.9720   22.0160 C   0  0  0  0  0  2  0  0  0  0  0  0
   11.0370   -1.0480   21.9980 C   0  0  0  0  0  2  0  0  0  0  0  0
   10.2740   -0.3780   22.9500 C   0  0  0  0  0  3  0  0  0  0  0  0
    5.6880    0.9030   18.0520 C   0  0  0  0  0  2  0  0  0  0  0  0
    4.7340    0.8020   20.4020 C   0  0  0  0  0  3  0  0  0  0  0  0
    3.8730    2.0050   20.2520 C   0  0  0  0  0  2  0  0  0  0  0  0
    4.9190    1.9600   21.3170 C   0  0  0  0  0  2  0  0  0  0  0  0
    8.7610   -0.3290   22.8630 C   0  0  0  0  0  3  0  0  0  0  0  0
    8.1000    0.4590   24.0260 C   0  0  0  0  0  2  0  0  0  0  0  0
    8.9640    0.4270   25.2670 C   0  0  0  0  0  2  0  0  0  0  0  0
   10.9450    0.3320   23.9510 C   0  0  0  0  0  3  0  0  0  0  0  0
    7.5000   -0.3720   20.7640 N   0  0  0  0  0  2  0  0  0  0  0  0
    7.6660    0.0930   18.3860 N   0  0  0  0  0  2  0  0  0  0  0  0
    6.8080    0.6520   17.4470 N   0  0  0  0  0  2  0  0  0  0  0  0
    5.7540    0.5570   19.3690 N   0  0  0  0  0  0  0  0  0  0  0  0
    8.8610    1.4010   21.1720 O   0  0  0  0  0  1  0  0  0  0  0  0
   10.2980    0.9190   25.0130 O   0  0  0  0  0  0  0  0  0  0  0  0
  1 12  1  0
  1 16  1  0
  1 20  1  0
  2 16  1  0
  2 17  1  0
  2 19  1  0
  3  4  1  0
  3 15  1  0
  4  5  1  0
  5  6  1  0
  6  7  1  0
  7 12  1  0
  7 15  1  0
  8 18  1  0
  8 19  1  0
  9 10  1  0
  9 11  1  0
  9 19  1  0
 10 11  1  0
 12 13  1  0
 13 14  1  0
 14 21  1  0
 15 21  1  0
 17 18  1  0
M  END
$$$$
