7gdo_A_MVR_405
     RDKit          3D

 29 32  0  0  0  0  0  0  0  0999 V2000
   14.5820   -2.3940   25.1390 C   0  0  0  0  0  1  0  0  0  0  0  0
   14.3290   -1.7770   22.6770 C   0  0  0  0  0  2  0  0  0  0  0  0
    5.9810    1.1360   17.9490 C   0  0  0  0  0  2  0  0  0  0  0  0
    7.9640    0.0790   18.3800 C   0  0  0  0  0  2  0  0  0  0  0  0
    9.8420   -1.1130   23.2890 C   0  0  0  0  0  3  0  0  0  0  0  0
    9.0870   -0.8200   24.4230 C   0  0  0  0  0  2  0  0  0  0  0  0
    8.7510   -1.8230   25.3130 C   0  0  0  0  0  2  0  0  0  0  0  0
    9.1510   -3.1430   25.1000 C   0  0  0  0  0  3  0  0  0  0  0  0
    9.8730   -3.4330   23.9420 C   0  0  0  0  0  2  0  0  0  0  0  0
   10.2170   -2.4370   23.0450 C   0  0  0  0  0  2  0  0  0  0  0  0
    8.8740   -4.1940   26.1090 C   0  0  0  0  0  3  0  0  0  0  0  0
    7.7030   -4.1910   26.8650 C   0  0  0  0  0  2  0  0  0  0  0  0
   13.5100   -0.9190   22.0070 C   0  0  0  0  0  2  0  0  0  0  0  0
    7.5550   -5.1330   27.8690 C   0  0  0  0  0  2  0  0  0  0  0  0
    8.5550   -6.0560   28.0900 C   0  0  0  0  0  2  0  0  0  0  0  0
    9.6770   -6.0050   27.2830 C   0  0  0  0  0  2  0  0  0  0  0  0
   12.6950   -0.3130   23.0120 C   0  0  0  0  0  3  0  0  0  0  0  0
   11.5440    0.6330   22.8430 C   0  0  0  0  0  2  0  0  0  0  0  0
    9.7000    0.3350   21.3010 C   0  0  0  0  0  3  0  0  0  0  0  0
    8.6920   -0.6200   20.6900 C   0  0  0  0  0  2  0  0  0  0  0  0
    7.7310    0.0620   19.7460 C   0  0  0  0  0  3  0  0  0  0  0  0
    6.5510    0.6370   20.1960 C   0  0  0  0  0  2  0  0  0  0  0  0
    5.6580    1.1800   19.2910 C   0  0  0  0  0  2  0  0  0  0  0  0
   14.0090   -1.6680   24.0120 N   0  0  0  0  0  0  0  0  0  0  0  0
   10.3180   -0.0540   22.4530 N   0  0  0  0  0  0  0  0  0  0  0  0
    7.1180    0.6010   17.4830 N   0  0  0  0  0  2  0  0  0  0  0  0
    9.8530   -5.0990   26.3040 N   0  0  0  0  0  2  0  0  0  0  0  0
   13.0140   -0.7680   24.2350 N   0  0  0  0  0  2  0  0  0  0  0  0
    9.9610    1.4000   20.7540 O   0  0  0  0  0  1  0  0  0  0  0  0
  1 24  1  0
  2 13  1  0
  2 24  1  0
  3 23  1  0
  3 26  1  0
  4 21  1  0
  4 26  1  0
  5  6  1  0
  5 10  1  0
  5 25  1  0
  6  7  1  0
  7  8  1  0
  8  9  1  0
  8 11  1  0
  9 10  1  0
 11 12  1  0
 11 27  1  0
 12 14  1  0
 13 17  1  0
 14 15  1  0
 15 16  1  0
 16 27  1  0
 17 18  1  0
 17 28  1  0
 18 25  1  0
 19 20  1  0
 19 25  1  0
 19 29  1  0
 20 21  1  0
 21 22  1  0
 22 23  1  0
 24 28  1  0
M  END
$$$$
