7gdp_A_MVX_405
     RDKit          3D

 21 24  0  0  0  0  0  0  0  0999 V2000
   13.1100   -0.9660   21.9840 C   0  0  0  0  0  3  0  0  0  0  0  0
   13.4360   -0.0020   22.9240 C   0  0  0  0  0  2  0  0  0  0  0  0
    4.4820    2.1560   20.3860 C   0  0  0  0  0  2  0  0  0  0  0  0
    5.6040    1.8590   21.3320 C   0  0  0  0  0  2  0  0  0  0  0  0
   10.7890   -0.6730   22.4170 C   0  0  0  0  0  3  0  0  0  0  0  0
   11.8020   -1.3010   21.7070 C   0  0  0  0  0  2  0  0  0  0  0  0
   12.4290    0.6060   23.6530 C   0  0  0  0  0  2  0  0  0  0  0  0
   11.1180    0.2450   23.3920 C   0  0  0  0  0  3  0  0  0  0  0  0
    8.8310   -0.0730   23.5770 C   0  0  0  0  0  2  0  0  0  0  0  0
    9.2830   -0.7290   22.2760 C   0  0  0  0  0  3  0  0  0  0  0  0
    8.8190    0.1240   21.0940 C   0  0  0  0  0  3  0  0  0  0  0  0
    7.3690    0.0580   19.1460 C   0  0  0  0  0  3  0  0  0  0  0  0
    5.9760    1.0840   17.8480 C   0  0  0  0  0  2  0  0  0  0  0  0
    5.2220    0.8660   20.2890 C   0  0  0  0  0  3  0  0  0  0  0  0
   14.3810   -1.8510   21.2070 Cl  0  0  0  0  0  0  0  0  0  0  0  0
    7.9140   -0.4780   20.2780 N   0  0  0  0  0  2  0  0  0  0  0  0
    7.9100    0.1140   17.9420 N   0  0  0  0  0  2  0  0  0  0  0  0
    7.0110    0.7750   17.1210 N   0  0  0  0  0  2  0  0  0  0  0  0
    6.1350    0.6630   19.1420 N   0  0  0  0  0  0  0  0  0  0  0  0
    9.9930    0.6450   24.0750 O   0  0  0  0  0  0  0  0  0  0  0  0
    9.2200    1.2670   20.9080 O   0  0  0  0  0  1  0  0  0  0  0  0
  1  2  1  0
  1  6  1  0
  1 15  1  0
  2  7  1  0
  3  4  1  0
  3 14  1  0
  4 14  1  0
  5  6  1  0
  5  8  1  0
  5 10  1  0
  7  8  1  0
  8 20  1  0
  9 10  1  0
  9 20  1  0
 10 11  1  0
 11 16  1  0
 11 21  1  0
 12 16  1  0
 12 17  1  0
 12 19  1  0
 13 18  1  0
 13 19  1  0
 14 19  1  0
 17 18  1  0
M  END
$$$$
