7gdr_A_MX9_406
     RDKit          3D

 22 24  0  0  0  0  0  0  0  0999 V2000
    6.1320    3.1680   29.8000 C   0  0  0  0  0  1  0  0  0  0  0  0
    6.6000    2.1200   28.8210 C   0  0  0  0  0  3  0  0  0  0  0  0
    8.3460   -2.8840   21.4700 C   0  0  0  0  0  3  0  0  0  0  0  0
    9.5810   -2.3670   21.8420 C   0  0  0  0  0  2  0  0  0  0  0  0
    9.6560   -1.3970   22.8290 C   0  0  0  0  0  2  0  0  0  0  0  0
    8.5040   -0.9250   23.4390 C   0  0  0  0  0  2  0  0  0  0  0  0
    7.5280    0.3130   26.9120 C   0  0  0  0  0  2  0  0  0  0  0  0
    8.3260    0.6510   27.9920 C   0  0  0  0  0  2  0  0  0  0  0  0
    7.8630    1.5510   28.9370 C   0  0  0  0  0  2  0  0  0  0  0  0
    5.8060    1.7500   27.7420 C   0  0  0  0  0  2  0  0  0  0  0  0
    6.2610    0.8630   26.7710 C   0  0  0  0  0  3  0  0  0  0  0  0
    5.4380    0.5650   25.5520 C   0  0  0  0  0  2  0  0  0  0  0  0
    6.0530   -0.8370   23.7370 C   0  0  0  0  0  3  0  0  0  0  0  0
    7.2500   -1.4110   23.0660 C   0  0  0  0  0  3  0  0  0  0  0  0
    7.1840   -2.4050   22.0710 C   0  0  0  0  0  3  0  0  0  0  0  0
    6.4530   -3.8990   20.5510 C   0  0  0  0  0  3  0  0  0  0  0  0
    7.9700   -3.9640   20.4780 C   0  0  0  0  0  3  0  0  0  0  0  0
    6.0870   -3.0150   21.5090 N   0  0  0  0  0  2  0  0  0  0  0  0
    6.3680    0.2280   24.4810 O   0  0  0  0  0  0  0  0  0  0  0  0
    4.9420   -1.2930   23.6560 O   0  0  0  0  0  1  0  0  0  0  0  0
    5.6960   -4.5400   19.8370 O   0  0  0  0  0  1  0  0  0  0  0  0
    8.3800   -5.1940   21.0560 O   0  0  0  0  0  1  0  0  0  0  0  0
  1  2  1  0
  2  9  1  0
  2 10  1  0
  3  4  1  0
  3 15  1  0
  3 17  1  0
  4  5  1  0
  5  6  1  0
  6 14  1  0
  7  8  1  0
  7 11  1  0
  8  9  1  0
 10 11  1  0
 11 12  1  0
 12 19  1  0
 13 14  1  0
 13 19  1  0
 13 20  1  0
 14 15  1  0
 15 18  1  0
 16 17  1  0
 16 18  1  0
 16 21  1  0
 17 22  1  0
M  END
$$$$
