7gds_A_MZF_405
     RDKit          3D

 18 20  0  0  0  0  0  0  0  0999 V2000
   12.0730    0.1270   22.6500 Br  0  0  0  0  0  0  0  0  0  0  0  0
    8.5190   -3.1190   20.0370 C   0  0  0  0  0  3  0  0  0  0  0  0
    7.0560   -2.7900   19.7660 C   0  0  0  0  0  3  0  0  0  0  0  0
    8.2460    0.3900   21.0800 C   0  0  0  0  0  2  0  0  0  0  0  0
    5.5900   -0.7730   19.9470 C   0  0  0  0  0  2  0  0  0  0  0  0
    5.6510    0.3200   18.9320 C   0  0  0  0  0  3  0  0  0  0  0  0
    5.0610    2.0010   17.8970 C   0  0  0  0  0  2  0  0  0  0  0  0
    8.0280   -0.9060   20.6220 C   0  0  0  0  0  3  0  0  0  0  0  0
    9.0240   -1.8700   20.6960 C   0  0  0  0  0  3  0  0  0  0  0  0
   10.2380   -1.5630   21.2930 C   0  0  0  0  0  2  0  0  0  0  0  0
   10.4360   -0.2820   21.7730 C   0  0  0  0  0  3  0  0  0  0  0  0
    9.4660    0.7030   21.6590 C   0  0  0  0  0  2  0  0  0  0  0  0
    6.8610   -1.4730   20.1000 N   0  0  0  0  0  0  0  0  0  0  0  0
    6.5740    0.4430   18.0280 N   0  0  0  0  0  2  0  0  0  0  0  0
    4.6780    1.2820   18.8930 N   0  0  0  0  0  2  0  0  0  0  0  0
    8.6050   -4.2350   20.9080 O   0  0  0  0  0  1  0  0  0  0  0  0
    6.2000   -3.5560   19.3700 O   0  0  0  0  0  1  0  0  0  0  0  0
    6.1750    1.5860   17.3170 O   0  0  0  0  0  0  0  0  0  0  0  0
  1 11  1  0
  2  3  1  0
  2  9  1  0
  2 16  1  0
  3 13  1  0
  3 17  1  0
  4  8  1  0
  4 12  1  0
  5  6  1  0
  5 13  1  0
  6 14  1  0
  6 15  1  0
  7 15  1  0
  7 18  1  0
  8  9  1  0
  8 13  1  0
  9 10  1  0
 10 11  1  0
 11 12  1  0
 14 18  1  0
M  END
$$$$
