7gdv_A_N0O_405
     RDKit          3D

 24 27  0  0  0  0  0  0  0  0999 V2000
   12.6910   -0.7030   22.2820 C   0  0  0  0  0  3  0  0  0  0  0  0
   12.9310    0.1620   23.3380 C   0  0  0  0  0  2  0  0  0  0  0  0
    6.2930    2.9590   21.2230 C   0  0  0  0  0  2  0  0  0  0  0  0
    5.7330    3.8580   22.1190 C   0  0  0  0  0  2  0  0  0  0  0  0
    4.3650    4.0580   22.1480 C   0  0  0  0  0  2  0  0  0  0  0  0
    3.5460    3.3520   21.2880 C   0  0  0  0  0  2  0  0  0  0  0  0
    4.0890    2.4490   20.3840 C   0  0  0  0  0  2  0  0  0  0  0  0
   10.3380   -0.4540   22.5530 C   0  0  0  0  0  3  0  0  0  0  0  0
   11.4100   -1.0270   21.8830 C   0  0  0  0  0  2  0  0  0  0  0  0
   11.8610    0.7210   24.0190 C   0  0  0  0  0  2  0  0  0  0  0  0
   10.5790    0.4030   23.6080 C   0  0  0  0  0  3  0  0  0  0  0  0
    8.3170    0.0230   23.6420 C   0  0  0  0  0  2  0  0  0  0  0  0
    8.8470   -0.5620   22.3400 C   0  0  0  0  0  3  0  0  0  0  0  0
    8.4220    0.3630   21.2000 C   0  0  0  0  0  3  0  0  0  0  0  0
    6.7830    0.2730   19.2850 C   0  0  0  0  0  3  0  0  0  0  0  0
    5.8080    1.6840   17.9500 C   0  0  0  0  0  2  0  0  0  0  0  0
    5.4700    2.2600   20.3410 C   0  0  0  0  0  3  0  0  0  0  0  0
   14.0360   -1.3810   21.4150 Cl  0  0  0  0  0  0  0  0  0  0  0  0
    7.5130   -0.1660   20.3460 N   0  0  0  0  0  2  0  0  0  0  0  0
    6.9170   -0.1750   18.0520 N   0  0  0  0  0  2  0  0  0  0  0  0
    6.3140    0.7400   17.2120 N   0  0  0  0  0  2  0  0  0  0  0  0
    6.0440    1.4640   19.2850 N   0  0  0  0  0  0  0  0  0  0  0  0
    9.3950    0.8670   24.1390 O   0  0  0  0  0  0  0  0  0  0  0  0
    8.9770    1.4380   20.9800 O   0  0  0  0  0  1  0  0  0  0  0  0
  1  2  1  0
  1  9  1  0
  1 18  1  0
  2 10  1  0
  3  4  1  0
  3 17  1  0
  4  5  1  0
  5  6  1  0
  6  7  1  0
  7 17  1  0
  8  9  1  0
  8 11  1  0
  8 13  1  0
 10 11  1  0
 11 23  1  0
 12 13  1  0
 12 23  1  0
 13 14  1  0
 14 19  1  0
 14 24  1  0
 15 19  1  0
 15 20  1  0
 15 22  1  0
 16 21  1  0
 16 22  1  0
 17 22  1  0
 20 21  1  0
M  END
$$$$
