7gdy_A_N2X_405
     RDKit          3D

 22 24  0  0  0  0  0  0  0  0999 V2000
    5.5360    1.0930   17.7580 Br  0  0  0  0  0  0  0  0  0  0  0  0
    8.0770   -0.4030   27.5030 C   0  0  0  0  0  1  0  0  0  0  0  0
    8.8230    0.1200   26.3360 C   0  0  0  0  0  2  0  0  0  0  0  0
    6.6390    0.5070   20.3100 C   0  0  0  0  0  2  0  0  0  0  0  0
    6.2350   -0.0440   19.1050 C   0  0  0  0  0  3  0  0  0  0  0  0
    6.3580   -1.3930   18.8380 C   0  0  0  0  0  2  0  0  0  0  0  0
   10.4690   -1.4500   22.1230 C   0  0  0  0  0  2  0  0  0  0  0  0
   11.5190   -0.5470   22.1350 C   0  0  0  0  0  2  0  0  0  0  0  0
   11.7490    0.2290   23.2460 C   0  0  0  0  0  2  0  0  0  0  0  0
   10.9380    0.1090   24.3640 C   0  0  0  0  0  2  0  0  0  0  0  0
    9.8720   -0.7820   24.3440 C   0  0  0  0  0  3  0  0  0  0  0  0
    9.6170   -1.5740   23.2200 C   0  0  0  0  0  3  0  0  0  0  0  0
    8.4130   -2.4850   23.1720 C   0  0  0  0  0  2  0  0  0  0  0  0
    7.9400   -3.8750   21.1490 C   0  0  0  0  0  3  0  0  0  0  0  0
    7.3230   -3.6570   19.7760 C   0  0  0  0  0  3  0  0  0  0  0  0
    6.9310   -2.2090   19.8020 C   0  0  0  0  0  3  0  0  0  0  0  0
    7.3350   -1.6700   21.0160 C   0  0  0  0  0  3  0  0  0  0  0  0
    7.1930   -0.3110   21.2800 C   0  0  0  0  0  2  0  0  0  0  0  0
    7.8890   -2.6790   21.8190 N   0  0  0  0  0  0  0  0  0  0  0  0
    9.0070   -0.9590   25.4010 O   0  0  0  0  0  0  0  0  0  0  0  0
    8.4130   -4.9110   21.5760 O   0  0  0  0  0  1  0  0  0  0  0  0
    6.2130   -4.5240   19.6610 O   0  0  0  0  0  1  0  0  0  0  0  0
  1  5  1  0
  2  3  1  0
  3 20  1  0
  4  5  1  0
  4 18  1  0
  5  6  1  0
  6 16  1  0
  7  8  1  0
  7 12  1  0
  8  9  1  0
  9 10  1  0
 10 11  1  0
 11 12  1  0
 11 20  1  0
 12 13  1  0
 13 19  1  0
 14 15  1  0
 14 19  1  0
 14 21  1  0
 15 16  1  0
 15 22  1  0
 16 17  1  0
 17 18  1  0
 17 19  1  0
M  END
$$$$
