7ge0_A_N3R_404
     RDKit          3D

 26 28  0  0  0  0  0  0  0  0999 V2000
   11.0570    2.5430   23.2680 C   0  0  0  0  0  1  0  0  0  0  0  0
   11.8610    0.3440   22.7460 C   0  0  0  0  0  3  0  0  0  0  0  0
    6.3070   -0.4390   19.7180 C   0  0  0  0  0  3  0  0  0  0  0  0
    6.8530   -0.2520   18.4870 C   0  0  0  0  0  2  0  0  0  0  0  0
    6.4830    0.7990   17.6070 C   0  0  0  0  0  3  0  0  0  0  0  0
    4.8630    1.5170   19.2870 C   0  0  0  0  0  3  0  0  0  0  0  0
    3.8520    2.4100   19.6430 C   0  0  0  0  0  2  0  0  0  0  0  0
    3.2720    2.3350   20.8970 C   0  0  0  0  0  2  0  0  0  0  0  0
    3.6970    1.3900   21.8120 C   0  0  0  0  0  2  0  0  0  0  0  0
    4.6840    0.5120   21.4370 C   0  0  0  0  0  3  0  0  0  0  0  0
    5.2820    0.5110   20.1830 C   0  0  0  0  0  3  0  0  0  0  0  0
   13.1960    0.7230   22.8260 C   0  0  0  0  0  2  0  0  0  0  0  0
   14.1850   -0.1800   22.4700 C   0  0  0  0  0  2  0  0  0  0  0  0
   13.8540   -1.4530   22.0470 C   0  0  0  0  0  2  0  0  0  0  0  0
   12.5290   -1.8520   21.9780 C   0  0  0  0  0  2  0  0  0  0  0  0
   11.5260   -0.9570   22.3200 C   0  0  0  0  0  3  0  0  0  0  0  0
    9.7330   -2.5780   22.4060 C   0  0  0  0  0  2  0  0  0  0  0  0
    8.2570   -2.6040   22.1230 C   0  0  0  0  0  2  0  0  0  0  0  0
    6.7060   -1.6560   20.4910 C   0  0  0  0  0  3  0  0  0  0  0  0
    5.0890   -0.4090   22.3370 F   0  0  0  0  0  0  0  0  0  0  0  0
    7.8610   -1.5900   21.1550 N   0  0  0  0  0  2  0  0  0  0  0  0
    5.4770    1.6190   18.0440 N   0  0  0  0  0  2  0  0  0  0  0  0
   10.7960    1.1620   23.0150 O   0  0  0  0  0  0  0  0  0  0  0  0
   10.1830   -1.2250   22.2330 O   0  0  0  0  0  0  0  0  0  0  0  0
    5.9780   -2.6490   20.5450 O   0  0  0  0  0  1  0  0  0  0  0  0
    7.0600    1.0400   16.5440 O   0  0  0  0  0  1  0  0  0  0  0  0
  1 23  1  0
  2 12  1  0
  2 16  1  0
  2 23  1  0
  3  4  1  0
  3 11  1  0
  3 19  1  0
  4  5  1  0
  5 22  1  0
  5 26  1  0
  6  7  1  0
  6 11  1  0
  6 22  1  0
  7  8  1  0
  8  9  1  0
  9 10  1  0
 10 11  1  0
 10 20  1  0
 12 13  1  0
 13 14  1  0
 14 15  1  0
 15 16  1  0
 16 24  1  0
 17 18  1  0
 17 24  1  0
 18 21  1  0
 19 21  1  0
 19 25  1  0
M  END
$$$$
