7ge1_A_N43_404
     RDKit          3D

 27 29  0  0  0  0  0  0  0  0999 V2000
   10.7210    2.5720   24.0110 C   0  0  0  0  0  1  0  0  0  0  0  0
   11.5150    0.4320   23.2700 C   0  0  0  0  0  3  0  0  0  0  0  0
    5.8700   -0.4000   19.9810 C   0  0  0  0  0  3  0  0  0  0  0  0
    6.4380   -0.2410   18.7560 C   0  0  0  0  0  2  0  0  0  0  0  0
    6.0610    0.7670   17.8340 C   0  0  0  0  0  3  0  0  0  0  0  0
    4.3690    1.4850   19.4430 C   0  0  0  0  0  3  0  0  0  0  0  0
    3.3500    2.3770   19.7570 C   0  0  0  0  0  2  0  0  0  0  0  0
    2.7850    2.3590   21.0180 C   0  0  0  0  0  2  0  0  0  0  0  0
    3.2340    1.4730   21.9820 C   0  0  0  0  0  2  0  0  0  0  0  0
    4.2420    0.5670   21.6790 C   0  0  0  0  0  3  0  0  0  0  0  0
    4.2120   -0.3560   23.8930 C   0  0  0  0  0  1  0  0  0  0  0  0
    4.8120    0.5340   20.3900 C   0  0  0  0  0  3  0  0  0  0  0  0
   12.8500    0.8210   23.2960 C   0  0  0  0  0  2  0  0  0  0  0  0
   13.8140   -0.0040   22.7380 C   0  0  0  0  0  2  0  0  0  0  0  0
   13.4620   -1.2220   22.1870 C   0  0  0  0  0  2  0  0  0  0  0  0
   12.1410   -1.6380   22.1820 C   0  0  0  0  0  2  0  0  0  0  0  0
   11.1580   -0.8080   22.7050 C   0  0  0  0  0  3  0  0  0  0  0  0
    9.3730   -2.4360   22.6190 C   0  0  0  0  0  2  0  0  0  0  0  0
    7.8850   -2.4360   22.4330 C   0  0  0  0  0  2  0  0  0  0  0  0
    6.2850   -1.5780   20.7960 C   0  0  0  0  0  3  0  0  0  0  0  0
    7.4590   -1.4810   21.4230 N   0  0  0  0  0  2  0  0  0  0  0  0
    5.0060    1.5580   18.2090 N   0  0  0  0  0  2  0  0  0  0  0  0
   10.4650    1.2000   23.6970 O   0  0  0  0  0  0  0  0  0  0  0  0
    9.8110   -1.0680   22.6550 O   0  0  0  0  0  0  0  0  0  0  0  0
    5.5600   -2.5650   20.9040 O   0  0  0  0  0  1  0  0  0  0  0  0
    6.6830    1.0130   16.7990 O   0  0  0  0  0  1  0  0  0  0  0  0
    4.7720   -0.3180   22.5800 O   0  0  0  0  0  0  0  0  0  0  0  0
  1 23  1  0
  2 13  1  0
  2 17  1  0
  2 23  1  0
  3  4  1  0
  3 12  1  0
  3 20  1  0
  4  5  1  0
  5 22  1  0
  5 26  1  0
  6  7  1  0
  6 12  1  0
  6 22  1  0
  7  8  1  0
  8  9  1  0
  9 10  1  0
 10 12  1  0
 10 27  1  0
 11 27  1  0
 13 14  1  0
 14 15  1  0
 15 16  1  0
 16 17  1  0
 17 24  1  0
 18 19  1  0
 18 24  1  0
 19 21  1  0
 20 21  1  0
 20 25  1  0
M  END
$$$$
