7ge3_A_N5L_403
     RDKit          3D

 19 20  0  0  0  0  0  0  0  0999 V2000
    6.0230    0.9930   21.2170 C   0  0  0  0  0  1  0  0  0  0  0  0
    6.4140    0.7670   19.7760 C   0  0  0  0  0  3  0  0  0  0  0  0
   13.1640    0.2440   23.4030 C   0  0  0  0  0  2  0  0  0  0  0  0
   14.0610   -0.3620   22.5360 C   0  0  0  0  0  2  0  0  0  0  0  0
   13.5770   -1.2690   21.6160 C   0  0  0  0  0  3  0  0  0  0  0  0
   12.2330   -1.5560   21.5140 C   0  0  0  0  0  2  0  0  0  0  0  0
    5.7760    1.4230   18.7520 C   0  0  0  0  0  3  0  0  0  0  0  0
    6.2220    1.2140   17.4280 C   0  0  0  0  0  2  0  0  0  0  0  0
    7.8470   -0.2400   18.1050 C   0  0  0  0  0  2  0  0  0  0  0  0
    7.4710   -0.0920   19.4320 C   0  0  0  0  0  3  0  0  0  0  0  0
    9.3150   -0.3120   20.9980 C   0  0  0  0  0  3  0  0  0  0  0  0
    9.8420   -1.1350   22.1570 C   0  0  0  0  0  2  0  0  0  0  0  0
   11.3260   -0.9160   22.3490 C   0  0  0  0  0  3  0  0  0  0  0  0
   11.8080   -0.0350   23.3110 C   0  0  0  0  0  2  0  0  0  0  0  0
   14.6880   -2.0590   20.5340 Cl  0  0  0  0  0  0  0  0  0  0  0  0
    4.7130    2.2940   18.9520 N   0  0  0  0  0  1  0  0  0  0  0  0
    7.2350    0.4000   17.1100 N   0  0  0  0  0  2  0  0  0  0  0  0
    8.1920   -0.7950   20.4320 N   0  0  0  0  0  2  0  0  0  0  0  0
    9.8360    0.7540   20.6640 O   0  0  0  0  0  1  0  0  0  0  0  0
  1  2  1  0
  2  7  1  0
  2 10  1  0
  3  4  1  0
  3 14  1  0
  4  5  1  0
  5  6  1  0
  5 15  1  0
  6 13  1  0
  7  8  1  0
  7 16  1  0
  8 17  1  0
  9 10  1  0
  9 17  1  0
 10 18  1  0
 11 12  1  0
 11 18  1  0
 11 19  1  0
 12 13  1  0
 13 14  1  0
M  END
$$$$
