7ge6_A_N8X_405
     RDKit          3D

 18 19  0  0  0  0  0  0  0  0999 V2000
   10.8030    0.4800   26.0250 C   0  0  0  0  0  1  0  0  0  0  0  0
   11.2270    0.0480   24.6430 C   0  0  0  0  0  3  0  0  0  0  0  0
    5.9500    1.5810   18.1820 C   0  0  0  0  0  2  0  0  0  0  0  0
    6.2330    1.7090   20.6490 C   0  0  0  0  0  1  0  0  0  0  0  0
   10.3370   -0.5940   23.7930 C   0  0  0  0  0  2  0  0  0  0  0  0
   12.5100    0.3050   24.1760 C   0  0  0  0  0  2  0  0  0  0  0  0
   12.9190   -0.0760   22.9040 C   0  0  0  0  0  3  0  0  0  0  0  0
   14.2940    0.2710   22.3960 C   0  0  0  0  0  1  0  0  0  0  0  0
   12.0090   -0.7360   22.0930 C   0  0  0  0  0  2  0  0  0  0  0  0
   10.7050   -0.9710   22.5070 C   0  0  0  0  0  3  0  0  0  0  0  0
    9.6690   -1.4600   21.5220 C   0  0  0  0  0  2  0  0  0  0  0  0
    9.0150   -0.2860   20.8200 C   0  0  0  0  0  3  0  0  0  0  0  0
    7.2580    0.0260   19.0020 C   0  0  0  0  0  3  0  0  0  0  0  0
    8.1420   -0.6280   19.8250 N   0  0  0  0  0  2  0  0  0  0  0  0
    7.1310   -0.1750   17.7010 N   0  0  0  0  0  2  0  0  0  0  0  0
    6.3090    0.8200   17.1910 N   0  0  0  0  0  2  0  0  0  0  0  0
    6.4930    1.1460   19.3260 N   0  0  0  0  0  0  0  0  0  0  0  0
    9.3810    0.8710   21.0150 O   0  0  0  0  0  1  0  0  0  0  0  0
  1  2  1  0
  2  5  1  0
  2  6  1  0
  3 16  1  0
  3 17  1  0
  4 17  1  0
  5 10  1  0
  6  7  1  0
  7  8  1  0
  7  9  1  0
  9 10  1  0
 10 11  1  0
 11 12  1  0
 12 14  1  0
 12 18  1  0
 13 14  1  0
 13 15  1  0
 13 17  1  0
 15 16  1  0
M  END
$$$$
