7ge7_A_N9I_404
     RDKit          3D

 21 23  0  0  0  0  0  0  0  0999 V2000
    5.8530    1.1010   21.3430 C   0  0  0  0  0  1  0  0  0  0  0  0
    6.3480    0.8050   19.9500 C   0  0  0  0  0  3  0  0  0  0  0  0
   14.0070   -0.8770   21.7020 C   0  0  0  0  0  2  0  0  0  0  0  0
   14.3730   -1.5320   22.8630 C   0  0  0  0  0  2  0  0  0  0  0  0
   13.4140   -2.1060   23.6940 C   0  0  0  0  0  3  0  0  0  0  0  0
   13.8640   -2.8220   24.9440 C   0  0  0  0  0  2  0  0  0  0  0  0
   12.7740   -3.7280   25.4640 C   0  0  0  0  0  2  0  0  0  0  0  0
   10.9890   -2.6080   24.2430 C   0  0  0  0  0  2  0  0  0  0  0  0
   12.0530   -2.0130   23.3550 C   0  0  0  0  0  3  0  0  0  0  0  0
    5.7060    1.3730   18.8560 C   0  0  0  0  0  2  0  0  0  0  0  0
    6.2000    1.1490   17.5870 C   0  0  0  0  0  2  0  0  0  0  0  0
    7.8930   -0.1450   18.3990 C   0  0  0  0  0  2  0  0  0  0  0  0
    7.4740    0.0010   19.7100 C   0  0  0  0  0  3  0  0  0  0  0  0
    8.1710   -0.7300   20.8380 C   0  0  0  0  0  2  0  0  0  0  0  0
    9.6250   -0.3670   21.0770 C   0  0  0  0  0  3  0  0  0  0  0  0
   11.6990   -1.3470   22.1570 C   0  0  0  0  0  3  0  0  0  0  0  0
   12.6760   -0.7850   21.3410 C   0  0  0  0  0  2  0  0  0  0  0  0
    7.2880    0.4120   17.3450 N   0  0  0  0  0  2  0  0  0  0  0  0
   10.3310   -1.3060   21.7600 N   0  0  0  0  0  2  0  0  0  0  0  0
   11.4920   -3.0010   25.5630 N   0  0  0  0  0  2  0  0  0  0  0  0
   10.0910    0.7050   20.6960 O   0  0  0  0  0  1  0  0  0  0  0  0
  1  2  1  0
  2 10  1  0
  2 13  1  0
  3  4  1  0
  3 17  1  0
  4  5  1  0
  5  6  1  0
  5  9  1  0
  6  7  1  0
  7 20  1  0
  8  9  1  0
  8 20  1  0
  9 16  1  0
 10 11  1  0
 11 18  1  0
 12 13  1  0
 12 18  1  0
 13 14  1  0
 14 15  1  0
 15 19  1  0
 15 21  1  0
 16 17  1  0
 16 19  1  0
M  END
$$$$
