7ge8_A_NB0_404
     RDKit          3D

 26 29  0  0  0  0  0  0  0  0999 V2000
   11.7790   -2.7710   24.3110 C   0  0  0  0  0  3  0  0  0  0  0  0
   13.0530   -2.9440   24.8000 C   0  0  0  0  0  2  0  0  0  0  0  0
    6.6080   -1.6160   20.6960 C   0  0  0  0  0  3  0  0  0  0  0  0
    6.2110   -0.4070   19.9200 C   0  0  0  0  0  3  0  0  0  0  0  0
    6.7760   -0.2200   18.7010 C   0  0  0  0  0  2  0  0  0  0  0  0
    6.4390    0.8600   17.8400 C   0  0  0  0  0  3  0  0  0  0  0  0
    4.8350    1.5910   19.5290 C   0  0  0  0  0  3  0  0  0  0  0  0
    3.8370    2.4910   19.9050 C   0  0  0  0  0  2  0  0  0  0  0  0
    3.1980    2.3360   21.1250 C   0  0  0  0  0  2  0  0  0  0  0  0
    3.5610    1.3190   21.9820 C   0  0  0  0  0  2  0  0  0  0  0  0
    4.5550    0.4200   21.6270 C   0  0  0  0  0  2  0  0  0  0  0  0
    5.1930    0.5330   20.3900 C   0  0  0  0  0  3  0  0  0  0  0  0
   14.1010   -2.3250   24.1420 C   0  0  0  0  0  2  0  0  0  0  0  0
   13.8650   -1.5520   23.0160 C   0  0  0  0  0  2  0  0  0  0  0  0
   12.5740   -1.3690   22.5370 C   0  0  0  0  0  2  0  0  0  0  0  0
   11.4940   -1.9690   23.1830 C   0  0  0  0  0  3  0  0  0  0  0  0
    9.3210   -2.9650   22.5100 C   0  0  0  0  0  2  0  0  0  0  0  0
    7.8400   -2.6120   22.5770 C   0  0  0  0  0  2  0  0  0  0  0  0
    8.3760   -0.3140   21.8760 C   0  0  0  0  0  2  0  0  0  0  0  0
    9.8550   -0.6830   21.8210 C   0  0  0  0  0  2  0  0  0  0  0  0
   10.7590   -3.4290   24.9120 F   0  0  0  0  0  0  0  0  0  0  0  0
   10.1450   -1.7740   22.7600 N   0  0  0  0  0  0  0  0  0  0  0  0
    7.5460   -1.5070   21.6540 N   0  0  0  0  0  0  0  0  0  0  0  0
    5.4660    1.7100   18.2970 N   0  0  0  0  0  2  0  0  0  0  0  0
    6.0730   -2.6830   20.4330 O   0  0  0  0  0  1  0  0  0  0  0  0
    7.0060    1.0850   16.7730 O   0  0  0  0  0  1  0  0  0  0  0  0
  1  2  1  0
  1 16  1  0
  1 21  1  0
  2 13  1  0
  3  4  1  0
  3 23  1  0
  3 25  1  0
  4  5  1  0
  4 12  1  0
  5  6  1  0
  6 24  1  0
  6 26  1  0
  7  8  1  0
  7 12  1  0
  7 24  1  0
  8  9  1  0
  9 10  1  0
 10 11  1  0
 11 12  1  0
 13 14  1  0
 14 15  1  0
 15 16  1  0
 16 22  1  0
 17 18  1  0
 17 22  1  0
 18 23  1  0
 19 20  1  0
 19 23  1  0
 20 22  1  0
M  END
$$$$
