7ge9_A_NB6_404
     RDKit          3D

 18 19  0  0  0  0  0  0  0  0999 V2000
   14.6290   -2.0940   20.6810 Br  0  0  0  0  0  0  0  0  0  0  0  0
    5.6720    0.9560   21.1450 C   0  0  0  0  0  1  0  0  0  0  0  0
    6.1820    0.7430   19.7420 C   0  0  0  0  0  3  0  0  0  0  0  0
   12.9390    0.3960   23.5090 C   0  0  0  0  0  2  0  0  0  0  0  0
   13.8550   -0.2240   22.6740 C   0  0  0  0  0  2  0  0  0  0  0  0
   13.3890   -1.1630   21.7740 C   0  0  0  0  0  3  0  0  0  0  0  0
   12.0520   -1.4750   21.6640 C   0  0  0  0  0  2  0  0  0  0  0  0
    5.5800    1.3850   18.6670 C   0  0  0  0  0  2  0  0  0  0  0  0
    6.1080    1.2360   17.4020 C   0  0  0  0  0  2  0  0  0  0  0  0
    7.7600   -0.1480   18.1570 C   0  0  0  0  0  2  0  0  0  0  0  0
    7.3080   -0.0490   19.4700 C   0  0  0  0  0  3  0  0  0  0  0  0
    9.1680   -0.2450   21.0330 C   0  0  0  0  0  3  0  0  0  0  0  0
    9.6540   -1.0240   22.2380 C   0  0  0  0  0  2  0  0  0  0  0  0
   11.1310   -0.8130   22.4650 C   0  0  0  0  0  3  0  0  0  0  0  0
   11.5880    0.1040   23.4010 C   0  0  0  0  0  2  0  0  0  0  0  0
    7.1800    0.4830   17.1320 N   0  0  0  0  0  2  0  0  0  0  0  0
    7.9960   -0.6760   20.5320 N   0  0  0  0  0  2  0  0  0  0  0  0
    9.7740    0.7330   20.6020 O   0  0  0  0  0  1  0  0  0  0  0  0
  1  6  1  0
  2  3  1  0
  3  8  1  0
  3 11  1  0
  4  5  1  0
  4 15  1  0
  5  6  1  0
  6  7  1  0
  7 14  1  0
  8  9  1  0
  9 16  1  0
 10 11  1  0
 10 16  1  0
 11 17  1  0
 12 13  1  0
 12 17  1  0
 12 18  1  0
 13 14  1  0
 14 15  1  0
M  END
$$$$
