7gea_A_N6F_404
     RDKit          3D

 22 23  0  0  0  0  0  0  0  0999 V2000
    9.2660   -1.7690   23.1490 C   0  0  0  0  0  1  0  0  0  0  0  0
    9.6330   -0.3810   22.5850 C   0  0  0  0  0  3  0  0  0  0  0  0
   11.1430   -0.1710   22.6220 C   0  0  0  0  0  3  0  0  0  0  0  0
   11.7140    0.7370   23.5030 C   0  0  0  0  0  2  0  0  0  0  0  0
   13.0820    0.9580   23.5050 C   0  0  0  0  0  2  0  0  0  0  0  0
   13.9040    0.2600   22.6350 C   0  0  0  0  0  2  0  0  0  0  0  0
   13.3330   -0.6650   21.7850 C   0  0  0  0  0  3  0  0  0  0  0  0
   11.9690   -0.8840   21.7590 C   0  0  0  0  0  2  0  0  0  0  0  0
    9.0770    0.1740   21.2630 C   0  0  0  0  0  3  0  0  0  0  0  0
    7.2220   -0.0140   19.6630 C   0  0  0  0  0  3  0  0  0  0  0  0
    7.6520   -0.1010   18.3430 C   0  0  0  0  0  2  0  0  0  0  0  0
    5.8500    1.0960   17.5970 C   0  0  0  0  0  2  0  0  0  0  0  0
    5.3220    1.2320   18.8650 C   0  0  0  0  0  2  0  0  0  0  0  0
    6.0240    0.6660   19.9260 C   0  0  0  0  0  3  0  0  0  0  0  0
    4.4010    1.2320   21.7480 C   0  0  0  0  0  3  0  0  0  0  0  0
    4.2760    1.2000   23.2420 C   0  0  0  0  0  1  0  0  0  0  0  0
   14.3620   -1.6170   20.7500 Cl  0  0  0  0  0  0  0  0  0  0  0  0
    8.0080   -0.4870   20.7370 N   0  0  0  0  0  2  0  0  0  0  0  0
    6.9900    0.4490   17.3220 N   0  0  0  0  0  2  0  0  0  0  0  0
    5.5860    0.7820   21.2660 N   0  0  0  0  0  2  0  0  0  0  0  0
    9.5260    1.1990   20.7630 O   0  0  0  0  0  1  0  0  0  0  0  0
    3.4850    1.6260   21.0260 O   0  0  0  0  0  1  0  0  0  0  0  0
  1  2  1  0
  2  3  1  0
  2  9  1  0
  3  4  1  0
  3  8  1  0
  4  5  1  0
  5  6  1  0
  6  7  1  0
  7  8  1  0
  7 17  1  0
  9 18  1  0
  9 21  1  0
 10 11  1  0
 10 14  1  0
 10 18  1  0
 11 19  1  0
 12 13  1  0
 12 19  1  0
 13 14  1  0
 14 20  1  0
 15 16  1  0
 15 20  1  0
 15 22  1  0
M  END
$$$$
