7geb_A_NDI_404
     RDKit          3D

 20 21  0  0  0  0  0  0  0  0999 V2000
   13.9290   -3.7290   25.1050 C   0  0  0  0  0  1  0  0  0  0  0  0
   14.5030   -2.4190   24.6770 C   0  0  0  0  0  3  0  0  0  0  0  0
    6.2700    0.7130   19.9110 C   0  0  0  0  0  3  0  0  0  0  0  0
    5.7440    0.8540   21.3150 C   0  0  0  0  0  1  0  0  0  0  0  0
   11.4930   -0.6710   24.0240 C   0  0  0  0  0  2  0  0  0  0  0  0
   12.9770   -0.4570   24.3250 C   0  0  0  0  0  2  0  0  0  0  0  0
   13.5490   -1.9140   22.4590 C   0  0  0  0  0  2  0  0  0  0  0  0
   12.0650   -2.1200   22.1830 C   0  0  0  0  0  2  0  0  0  0  0  0
    9.8700   -1.1490   22.2900 C   0  0  0  0  0  2  0  0  0  0  0  0
    9.4040   -0.3680   21.0720 C   0  0  0  0  0  3  0  0  0  0  0  0
    7.4210   -0.0450   19.6130 C   0  0  0  0  0  3  0  0  0  0  0  0
    7.8390   -0.1290   18.2850 C   0  0  0  0  0  2  0  0  0  0  0  0
    6.1300    1.2050   17.5740 C   0  0  0  0  0  2  0  0  0  0  0  0
    5.6270    1.3400   18.8520 C   0  0  0  0  0  2  0  0  0  0  0  0
   13.7530   -1.6230   23.8790 N   0  0  0  0  0  0  0  0  0  0  0  0
   11.2850   -0.9430   22.5890 N   0  0  0  0  0  0  0  0  0  0  0  0
    8.1490   -0.6680   20.6590 N   0  0  0  0  0  2  0  0  0  0  0  0
    7.2150    0.4850   17.2770 N   0  0  0  0  0  2  0  0  0  0  0  0
   15.6140   -2.0800   25.0300 O   0  0  0  0  0  1  0  0  0  0  0  0
   10.1240    0.4760   20.5440 O   0  0  0  0  0  1  0  0  0  0  0  0
  1  2  1  0
  2 15  1  0
  2 19  1  0
  3  4  1  0
  3 11  1  0
  3 14  1  0
  5  6  1  0
  5 16  1  0
  6 15  1  0
  7  8  1  0
  7 15  1  0
  8 16  1  0
  9 10  1  0
  9 16  1  0
 10 17  1  0
 10 20  1  0
 11 12  1  0
 11 17  1  0
 12 18  1  0
 13 14  1  0
 13 18  1  0
M  END
$$$$
