7gec_A_NEL_404
     RDKit          3D

 20 22  0  0  0  0  0  0  0  0999 V2000
   13.5720   -1.0430   21.7180 C   0  0  0  0  0  3  0  0  0  0  0  0
   13.8970    0.0350   22.5190 C   0  0  0  0  0  2  0  0  0  0  0  0
    4.7370    1.9450   19.4570 C   0  0  0  0  0  2  0  0  0  0  0  0
    5.7140    1.3150   18.6950 C   0  0  0  0  0  3  0  0  0  0  0  0
    7.4890    0.0640   18.1790 C   0  0  0  0  0  2  0  0  0  0  0  0
    6.7110    0.5070   19.2760 C   0  0  0  0  0  3  0  0  0  0  0  0
   12.2810   -1.5070   21.6130 C   0  0  0  0  0  2  0  0  0  0  0  0
   12.8820    0.6700   23.2180 C   0  0  0  0  0  2  0  0  0  0  0  0
   11.5700    0.2330   23.0910 C   0  0  0  0  0  2  0  0  0  0  0  0
   11.2570   -0.8500   22.2780 C   0  0  0  0  0  3  0  0  0  0  0  0
    9.8250   -1.2750   22.0460 C   0  0  0  0  0  2  0  0  0  0  0  0
    9.0490   -0.2980   21.1860 C   0  0  0  0  0  3  0  0  0  0  0  0
    6.7070    0.3580   20.6740 C   0  0  0  0  0  3  0  0  0  0  0  0
    5.7190    0.9900   21.4380 C   0  0  0  0  0  2  0  0  0  0  0  0
    4.7450    1.7690   20.8320 C   0  0  0  0  0  2  0  0  0  0  0  0
   14.8080   -1.7950   20.7460 Cl  0  0  0  0  0  0  0  0  0  0  0  0
    7.7080   -0.4330   21.2900 N   0  0  0  0  0  2  0  0  0  0  0  0
    5.9520    1.3150   17.3570 N   0  0  0  0  0  2  0  0  0  0  0  0
    7.0360    0.5460   17.0380 N   0  0  0  0  0  2  0  0  0  0  0  0
    9.6040    0.5690   20.5100 O   0  0  0  0  0  1  0  0  0  0  0  0
  1  2  1  0
  1  7  1  0
  1 16  1  0
  2  8  1  0
  3  4  1  0
  3 15  1  0
  4  6  1  0
  4 18  1  0
  5  6  1  0
  5 19  1  0
  6 13  1  0
  7 10  1  0
  8  9  1  0
  9 10  1  0
 10 11  1  0
 11 12  1  0
 12 17  1  0
 12 20  1  0
 13 14  1  0
 13 17  1  0
 14 15  1  0
 18 19  1  0
M  END
$$$$
