7ged_A_NGX_404
     RDKit          3D

 16 17  0  0  0  0  0  0  0  0999 V2000
    9.3650   -0.3860   20.7340 C   0  0  0  0  0  3  0  0  0  0  0  0
    9.8170   -0.9060   22.1040 C   0  0  0  0  0  2  0  0  0  0  0  0
    6.2460    1.0380   17.9320 C   0  0  0  0  0  2  0  0  0  0  0  0
   11.2910   -0.6930   22.3500 C   0  0  0  0  0  3  0  0  0  0  0  0
   11.7390    0.3390   23.1620 C   0  0  0  0  0  2  0  0  0  0  0  0
   13.0830    0.6810   23.1970 C   0  0  0  0  0  2  0  0  0  0  0  0
   14.0010   -0.0120   22.4230 C   0  0  0  0  0  2  0  0  0  0  0  0
   13.5540   -1.0620   21.6500 C   0  0  0  0  0  3  0  0  0  0  0  0
   12.2220   -1.4240   21.6180 C   0  0  0  0  0  2  0  0  0  0  0  0
    7.8580   -0.5510   20.5730 C   0  0  0  0  0  2  0  0  0  0  0  0
    7.8410   -0.2790   18.0610 C   0  0  0  0  0  2  0  0  0  0  0  0
   14.6940   -1.9540   20.6750 Cl  0  0  0  0  0  0  0  0  0  0  0  0
    7.3770   -0.0550   19.2860 N   0  0  0  0  0  0  0  0  0  0  0  0
    7.1590    0.4020   17.1680 N   0  0  0  0  0  2  0  0  0  0  0  0
    6.3280    0.8020   19.2220 N   0  0  0  0  0  2  0  0  0  0  0  0
    9.7420    0.9920   20.6000 O   0  0  0  0  0  1  0  0  0  0  0  0
  1  2  1  0
  1 10  1  0
  1 16  1  0
  2  4  1  0
  3 14  1  0
  3 15  1  0
  4  5  1  0
  4  9  1  0
  5  6  1  0
  6  7  1  0
  7  8  1  0
  8  9  1  0
  8 12  1  0
 10 13  1  0
 11 13  1  0
 11 14  1  0
 13 15  1  0
M  END
$$$$
