7gee_A_NIJ_404
     RDKit          3D

 19 20  0  0  0  0  0  0  0  0999 V2000
    6.0790    0.7930   21.4180 C   0  0  0  0  0  1  0  0  0  0  0  0
    6.5000    0.6600   19.9770 C   0  0  0  0  0  3  0  0  0  0  0  0
   14.0960   -1.2490   23.1510 C   0  0  0  0  0  2  0  0  0  0  0  0
   14.9570   -2.0000   23.9420 C   0  0  0  0  0  2  0  0  0  0  0  0
   14.4730   -3.0280   24.7350 C   0  0  0  0  0  2  0  0  0  0  0  0
   13.1300   -3.2840   24.6910 C   0  0  0  0  0  3  0  0  0  0  0  0
   12.2430   -2.5550   23.9170 C   0  0  0  0  0  2  0  0  0  0  0  0
    5.7640    1.2730   18.9710 C   0  0  0  0  0  2  0  0  0  0  0  0
    6.1930    1.1890   17.6610 C   0  0  0  0  0  2  0  0  0  0  0  0
    8.0160   -0.0580   18.2420 C   0  0  0  0  0  2  0  0  0  0  0  0
    7.6700   -0.0400   19.5960 C   0  0  0  0  0  3  0  0  0  0  0  0
    9.7290   -0.2460   20.9410 C   0  0  0  0  0  3  0  0  0  0  0  0
   10.5240   -1.2320   21.7730 C   0  0  0  0  0  2  0  0  0  0  0  0
   11.7870   -0.5910   22.3940 C   0  0  0  0  0  2  0  0  0  0  0  0
   12.7300   -1.5030   23.1420 C   0  0  0  0  0  3  0  0  0  0  0  0
   12.6420   -4.3260   25.4340 F   0  0  0  0  0  0  0  0  0  0  0  0
    7.3060    0.5470   17.2840 N   0  0  0  0  0  2  0  0  0  0  0  0
    8.4920   -0.6720   20.5770 N   0  0  0  0  0  2  0  0  0  0  0  0
   10.1940    0.8460   20.6110 O   0  0  0  0  0  1  0  0  0  0  0  0
  1  2  1  0
  2  8  1  0
  2 11  1  0
  3  4  1  0
  3 15  1  0
  4  5  1  0
  5  6  1  0
  6  7  1  0
  6 16  1  0
  7 15  1  0
  8  9  1  0
  9 17  1  0
 10 11  1  0
 10 17  1  0
 11 18  1  0
 12 13  1  0
 12 18  1  0
 12 19  1  0
 13 14  1  0
 14 15  1  0
M  END
$$$$
