7geh_A_NKU_404
     RDKit          3D

 22 24  0  0  0  0  0  0  0  0999 V2000
    9.9110   -1.5770   23.1790 C   0  0  0  0  0  1  0  0  0  0  0  0
   11.5330    0.2580   22.8850 C   0  0  0  0  0  2  0  0  0  0  0  0
    6.5720    0.7730   18.3080 C   0  0  0  0  0  3  0  0  0  0  0  0
    5.4770    1.5900   18.0360 C   0  0  0  0  0  2  0  0  0  0  0  0
    4.7160    2.0510   19.1000 C   0  0  0  0  0  2  0  0  0  0  0  0
    5.0260    1.6980   20.4130 C   0  0  0  0  0  2  0  0  0  0  0  0
    6.1050    0.8690   20.6930 C   0  0  0  0  0  2  0  0  0  0  0  0
    6.8700    0.4240   19.6210 C   0  0  0  0  0  3  0  0  0  0  0  0
   12.7380   -0.6490   22.8410 C   0  0  0  0  0  3  0  0  0  0  0  0
   13.2920   -1.0300   21.6240 C   0  0  0  0  0  2  0  0  0  0  0  0
   14.3310   -1.9480   21.5720 C   0  0  0  0  0  2  0  0  0  0  0  0
   14.8310   -2.5040   22.7440 C   0  0  0  0  0  2  0  0  0  0  0  0
   14.2800   -2.1170   23.9510 C   0  0  0  0  0  3  0  0  0  0  0  0
   13.2560   -1.1900   24.0170 C   0  0  0  0  0  2  0  0  0  0  0  0
    9.7470    0.0020   21.2530 C   0  0  0  0  0  3  0  0  0  0  0  0
    8.7860   -0.9570   20.5570 C   0  0  0  0  0  2  0  0  0  0  0  0
   14.8640   -2.8390   25.4340 Cl  0  0  0  0  0  0  0  0  0  0  0  0
   10.3400   -0.4210   22.3920 N   0  0  0  0  0  0  0  0  0  0  0  0
    8.0290   -0.2870   19.5220 N   0  0  0  0  0  0  0  0  0  0  0  0
    8.4210   -0.3600   18.2250 N   0  0  0  0  0  2  0  0  0  0  0  0
    7.5520    0.2670   17.4860 N   0  0  0  0  0  2  0  0  0  0  0  0
    9.9490    1.1200   20.7970 O   0  0  0  0  0  1  0  0  0  0  0  0
  1 18  1  0
  2  9  1  0
  2 18  1  0
  3  4  1  0
  3  8  1  0
  3 21  1  0
  4  5  1  0
  5  6  1  0
  6  7  1  0
  7  8  1  0
  8 19  1  0
  9 10  1  0
  9 14  1  0
 10 11  1  0
 11 12  1  0
 12 13  1  0
 13 14  1  0
 13 17  1  0
 15 16  1  0
 15 18  1  0
 15 22  1  0
 16 19  1  0
 19 20  1  0
 20 21  1  0
M  END
$$$$
