7gei_A_NM0_404
     RDKit          3D

 20 22  0  0  0  0  0  0  0  0999 V2000
   13.4690   -0.9520   21.8510 C   0  0  0  0  0  3  0  0  0  0  0  0
   13.9440    0.0690   22.6480 C   0  0  0  0  0  2  0  0  0  0  0  0
    5.2540    1.7470   18.0360 C   0  0  0  0  0  2  0  0  0  0  0  0
    4.5910    2.2540   19.1160 C   0  0  0  0  0  2  0  0  0  0  0  0
    4.9510    1.8740   20.4340 C   0  0  0  0  0  2  0  0  0  0  0  0
    5.9660    1.0050   20.6340 C   0  0  0  0  0  2  0  0  0  0  0  0
   12.1380   -1.3190   21.8570 C   0  0  0  0  0  2  0  0  0  0  0  0
   13.0610    0.7060   23.5070 C   0  0  0  0  0  2  0  0  0  0  0  0
   11.7250    0.3370   23.5340 C   0  0  0  0  0  2  0  0  0  0  0  0
   11.2430   -0.6520   22.6870 C   0  0  0  0  0  3  0  0  0  0  0  0
    9.7580   -0.8910   22.5440 C   0  0  0  0  0  2  0  0  0  0  0  0
    9.2100   -0.1780   21.3230 C   0  0  0  0  0  3  0  0  0  0  0  0
    7.6950   -0.3930   19.4500 C   0  0  0  0  0  3  0  0  0  0  0  0
    7.9490   -0.5500   18.1280 C   0  0  0  0  0  2  0  0  0  0  0  0
    6.3170    0.8370   18.2370 C   0  0  0  0  0  3  0  0  0  0  0  0
   14.5740   -1.8050   20.8090 Cl  0  0  0  0  0  0  0  0  0  0  0  0
    8.3140   -0.8990   20.5890 N   0  0  0  0  0  2  0  0  0  0  0  0
    7.1090    0.2100   17.3660 N   0  0  0  0  0  2  0  0  0  0  0  0
    6.6440    0.4900   19.5440 N   0  0  0  0  0  0  0  0  0  0  0  0
    9.5700    0.9520   21.0060 O   0  0  0  0  0  1  0  0  0  0  0  0
  1  2  1  0
  1  7  1  0
  1 16  1  0
  2  8  1  0
  3  4  1  0
  3 15  1  0
  4  5  1  0
  5  6  1  0
  6 19  1  0
  7 10  1  0
  8  9  1  0
  9 10  1  0
 10 11  1  0
 11 12  1  0
 12 17  1  0
 12 20  1  0
 13 14  1  0
 13 17  1  0
 13 19  1  0
 14 18  1  0
 15 18  1  0
 15 19  1  0
M  END
$$$$
