7gej_A_NO0_404
     RDKit          3D

 22 24  0  0  0  0  0  0  0  0999 V2000
    9.1340   -0.5770   21.0560 C   0  0  0  0  0  3  0  0  0  0  0  0
    9.5730   -1.5170   22.1580 C   0  0  0  0  0  2  0  0  0  0  0  0
    7.3440   -0.2870   19.3680 C   0  0  0  0  0  3  0  0  0  0  0  0
    7.6360   -0.2720   18.0080 C   0  0  0  0  0  2  0  0  0  0  0  0
    5.9160    1.1240   17.4890 C   0  0  0  0  0  2  0  0  0  0  0  0
    5.4990    1.2220   18.8370 C   0  0  0  0  0  3  0  0  0  0  0  0
    4.4150    2.0310   19.2560 C   0  0  0  0  0  2  0  0  0  0  0  0
    4.0780    2.1090   20.5740 C   0  0  0  0  0  2  0  0  0  0  0  0
    4.7860    1.3960   21.5280 C   0  0  0  0  0  2  0  0  0  0  0  0
    5.8370    0.6020   21.1670 C   0  0  0  0  0  2  0  0  0  0  0  0
    6.2330    0.4920   19.8100 C   0  0  0  0  0  3  0  0  0  0  0  0
   11.0200   -1.2660   22.4940 C   0  0  0  0  0  3  0  0  0  0  0  0
   11.2960   -0.5750   23.6820 C   0  0  0  0  0  2  0  0  0  0  0  0
   12.5690   -0.0630   23.9160 C   0  0  0  0  0  2  0  0  0  0  0  0
   13.5650   -0.2440   22.9950 C   0  0  0  0  0  2  0  0  0  0  0  0
   13.3230   -1.0030   21.7960 C   0  0  0  0  0  3  0  0  0  0  0  0
   14.2830   -1.2310   20.8580 C   0  0  0  0  0  2  0  0  0  0  0  0
   15.1060   -1.4350   20.0290 C   0  0  0  0  0  1  0  0  0  0  0  0
   12.0120   -1.5090   21.6030 C   0  0  0  0  0  2  0  0  0  0  0  0
    8.0840   -1.0040   20.3260 N   0  0  0  0  0  2  0  0  0  0  0  0
    6.9500    0.4060   17.0810 N   0  0  0  0  0  2  0  0  0  0  0  0
    9.6910    0.5050   20.8860 O   0  0  0  0  0  1  0  0  0  0  0  0
  1  2  1  0
  1 20  1  0
  1 22  1  0
  2 12  1  0
  3  4  1  0
  3 11  1  0
  3 20  1  0
  4 21  1  0
  5  6  1  0
  5 21  1  0
  6  7  1  0
  6 11  1  0
  7  8  1  0
  8  9  1  0
  9 10  1  0
 10 11  1  0
 12 13  1  0
 12 19  1  0
 13 14  1  0
 14 15  1  0
 15 16  1  0
 16 17  1  0
 16 19  1  0
 17 18  1  0
M  END
$$$$
