7gel_A_NQ3_404
     RDKit          3D

 20 22  0  0  0  0  0  0  0  0999 V2000
    5.9730    0.8540   21.4960 C   0  0  0  0  0  1  0  0  0  0  0  0
    6.4170    0.6880   20.0640 C   0  0  0  0  0  3  0  0  0  0  0  0
   12.1370    0.6540   22.5340 C   0  0  0  0  0  2  0  0  0  0  0  0
   13.4730    0.8820   22.8110 C   0  0  0  0  0  2  0  0  0  0  0  0
   14.3540   -0.1780   22.9350 C   0  0  0  0  0  2  0  0  0  0  0  0
   13.8760   -1.4630   22.7990 C   0  0  0  0  0  3  0  0  0  0  0  0
   12.5590   -1.7230   22.4670 C   0  0  0  0  0  2  0  0  0  0  0  0
    5.6910    1.2700   19.0290 C   0  0  0  0  0  2  0  0  0  0  0  0
    6.1250    1.1300   17.7240 C   0  0  0  0  0  2  0  0  0  0  0  0
    7.9210   -0.1170   18.3730 C   0  0  0  0  0  2  0  0  0  0  0  0
    7.5660   -0.0230   19.7160 C   0  0  0  0  0  3  0  0  0  0  0  0
    8.2410   -1.7790   21.4460 C   0  0  0  0  0  2  0  0  0  0  0  0
    9.5390   -2.0060   22.1940 C   0  0  0  0  0  2  0  0  0  0  0  0
    9.7240    0.0040   20.9490 C   0  0  0  0  0  3  0  0  0  0  0  0
   11.6820   -0.6490   22.3290 C   0  0  0  0  0  3  0  0  0  0  0  0
   14.9510   -2.7990   23.0940 Cl  0  0  0  0  0  0  0  0  0  0  0  0
    7.2260    0.4500   17.3830 N   0  0  0  0  0  2  0  0  0  0  0  0
    8.4850   -0.5420   20.6880 N   0  0  0  0  0  0  0  0  0  0  0  0
   10.3640   -0.8470   21.8240 N   0  0  0  0  0  0  0  0  0  0  0  0
   10.1610    1.0470   20.5100 O   0  0  0  0  0  1  0  0  0  0  0  0
  1  2  1  0
  2  8  1  0
  2 11  1  0
  3  4  1  0
  3 15  1  0
  4  5  1  0
  5  6  1  0
  6  7  1  0
  6 16  1  0
  7 15  1  0
  8  9  1  0
  9 17  1  0
 10 11  1  0
 10 17  1  0
 11 18  1  0
 12 13  1  0
 12 18  1  0
 13 19  1  0
 14 18  1  0
 14 19  1  0
 14 20  1  0
 15 19  1  0
M  END
$$$$
