7gen_A_NRC_404
     RDKit          3D

 22 23  0  0  0  0  0  0  0  0999 V2000
    9.1660   -0.7810   25.9610 C   0  0  0  0  0  1  0  0  0  0  0  0
    9.2140   -0.3680   23.6270 C   0  0  0  0  0  3  0  0  0  0  0  0
   11.3840   -0.5020   22.3850 C   0  0  0  0  0  3  0  0  0  0  0  0
   11.8560    0.6570   22.9880 C   0  0  0  0  0  2  0  0  0  0  0  0
   13.2030    0.9860   22.9330 C   0  0  0  0  0  2  0  0  0  0  0  0
   14.0980    0.1530   22.2770 C   0  0  0  0  0  2  0  0  0  0  0  0
   13.6190   -0.9940   21.6780 C   0  0  0  0  0  3  0  0  0  0  0  0
   12.2860   -1.3410   21.7360 C   0  0  0  0  0  2  0  0  0  0  0  0
    9.8890   -0.8040   22.3320 C   0  0  0  0  0  3  0  0  0  0  0  0
    9.2690   -0.0410   21.1360 C   0  0  0  0  0  3  0  0  0  0  0  0
    7.4060    0.0140   19.5890 C   0  0  0  0  0  3  0  0  0  0  0  0
    7.8190   -0.0720   18.2580 C   0  0  0  0  0  2  0  0  0  0  0  0
    6.1220    1.2870   17.5540 C   0  0  0  0  0  2  0  0  0  0  0  0
    5.6330    1.4300   18.8390 C   0  0  0  0  0  2  0  0  0  0  0  0
    6.2720    0.7870   19.8940 C   0  0  0  0  0  3  0  0  0  0  0  0
    5.7840    0.9630   21.3100 C   0  0  0  0  0  1  0  0  0  0  0  0
   14.7070   -1.9950   20.7550 Cl  0  0  0  0  0  0  0  0  0  0  0  0
    8.1480   -0.5930   20.6360 N   0  0  0  0  0  2  0  0  0  0  0  0
    7.1970    0.5490   17.2500 N   0  0  0  0  0  2  0  0  0  0  0  0
    9.5230   -1.2020   24.6230 O   0  0  0  0  0  0  0  0  0  0  0  0
    8.5320    0.6130   23.7470 O   0  0  0  0  0  1  0  0  0  0  0  0
    9.7700    0.9860   20.6930 O   0  0  0  0  0  1  0  0  0  0  0  0
  1 20  1  0
  2  9  1  0
  2 20  1  0
  2 21  1  0
  3  4  1  0
  3  8  1  0
  3  9  1  0
  4  5  1  0
  5  6  1  0
  6  7  1  0
  7  8  1  0
  7 17  1  0
  9 10  1  0
 10 18  1  0
 10 22  1  0
 11 12  1  0
 11 15  1  0
 11 18  1  0
 12 19  1  0
 13 14  1  0
 13 19  1  0
 14 15  1  0
 15 16  1  0
M  END
$$$$
