7geq_A_NSR_404
     RDKit          3D

 24 27  0  0  0  0  0  0  0  0999 V2000
   13.5380   -1.1290   21.5670 C   0  0  0  0  0  3  0  0  0  0  0  0
   14.0180   -0.2650   22.5260 C   0  0  0  0  0  2  0  0  0  0  0  0
    5.8140    1.1770   17.7060 C   0  0  0  0  0  2  0  0  0  0  0  0
    5.4380    1.2050   19.0710 C   0  0  0  0  0  3  0  0  0  0  0  0
    4.3130    1.9230   19.5500 C   0  0  0  0  0  2  0  0  0  0  0  0
    3.9940    1.9100   20.8770 C   0  0  0  0  0  2  0  0  0  0  0  0
    4.7670    1.1980   21.7820 C   0  0  0  0  0  2  0  0  0  0  0  0
    5.8590    0.4910   21.3630 C   0  0  0  0  0  2  0  0  0  0  0  0
    6.2300    0.4630   19.9910 C   0  0  0  0  0  3  0  0  0  0  0  0
   11.2840   -0.8400   22.3400 C   0  0  0  0  0  3  0  0  0  0  0  0
   12.1930   -1.4200   21.4580 C   0  0  0  0  0  2  0  0  0  0  0  0
   13.1340    0.2990   23.4270 C   0  0  0  0  0  2  0  0  0  0  0  0
   11.7810    0.0050   23.3360 C   0  0  0  0  0  3  0  0  0  0  0  0
    9.5760    0.6490   23.9990 C   0  0  0  0  0  2  0  0  0  0  0  0
    9.0340   -0.6610   23.4860 C   0  0  0  0  0  2  0  0  0  0  0  0
    9.7930   -1.0810   22.2170 C   0  0  0  0  0  3  0  0  0  0  0  0
    9.2740   -0.2660   21.0310 C   0  0  0  0  0  3  0  0  0  0  0  0
    7.3280   -0.2970   19.4770 C   0  0  0  0  0  3  0  0  0  0  0  0
    7.5710   -0.2210   18.1060 C   0  0  0  0  0  2  0  0  0  0  0  0
   14.6590   -1.8980   20.4800 Cl  0  0  0  0  0  0  0  0  0  0  0  0
    8.2750   -0.8500   20.3480 N   0  0  0  0  0  2  0  0  0  0  0  0
    6.8570    0.5030   17.2350 N   0  0  0  0  0  2  0  0  0  0  0  0
   10.9860    0.5630   24.3060 O   0  0  0  0  0  0  0  0  0  0  0  0
    9.7500    0.8230   20.7270 O   0  0  0  0  0  1  0  0  0  0  0  0
  1  2  1  0
  1 11  1  0
  1 20  1  0
  2 12  1  0
  3  4  1  0
  3 22  1  0
  4  5  1  0
  4  9  1  0
  5  6  1  0
  6  7  1  0
  7  8  1  0
  8  9  1  0
  9 18  1  0
 10 11  1  0
 10 13  1  0
 10 16  1  0
 12 13  1  0
 13 23  1  0
 14 15  1  0
 14 23  1  0
 15 16  1  0
 16 17  1  0
 17 21  1  0
 17 24  1  0
 18 19  1  0
 18 21  1  0
 19 22  1  0
M  END
$$$$
