7ger_A_NU0_404
     RDKit          3D

 21 23  0  0  0  0  0  0  0  0999 V2000
   13.4010   -1.1820   21.8160 C   0  0  0  0  0  3  0  0  0  0  0  0
   13.8210   -0.2470   22.7370 C   0  0  0  0  0  2  0  0  0  0  0  0
    5.3830    1.2650   19.0760 C   0  0  0  0  0  3  0  0  0  0  0  0
    4.2350    1.9350   19.5720 C   0  0  0  0  0  2  0  0  0  0  0  0
    3.9520    1.8690   20.8960 C   0  0  0  0  0  2  0  0  0  0  0  0
    5.8060    0.6100   21.3420 C   0  0  0  0  0  2  0  0  0  0  0  0
    6.2200    0.5500   19.9860 C   0  0  0  0  0  3  0  0  0  0  0  0
   12.0680   -1.5100   21.6700 C   0  0  0  0  0  2  0  0  0  0  0  0
   12.8740    0.3620   23.5460 C   0  0  0  0  0  2  0  0  0  0  0  0
   11.5310    0.0390   23.4120 C   0  0  0  0  0  2  0  0  0  0  0  0
   11.1120   -0.8820   22.4590 C   0  0  0  0  0  3  0  0  0  0  0  0
    9.6410   -1.1250   22.2060 C   0  0  0  0  0  2  0  0  0  0  0  0
    9.0770   -0.1690   21.1710 C   0  0  0  0  0  3  0  0  0  0  0  0
    7.2680   -0.2620   19.4340 C   0  0  0  0  0  3  0  0  0  0  0  0
    7.3780   -0.2970   18.0440 C   0  0  0  0  0  2  0  0  0  0  0  0
    5.6670    1.1590   17.6920 C   0  0  0  0  0  2  0  0  0  0  0  0
   14.5760   -1.9590   20.7920 Cl  0  0  0  0  0  0  0  0  0  0  0  0
    8.3320   -0.7490   20.2130 N   0  0  0  0  0  2  0  0  0  0  0  0
    6.6280    0.4040   17.1860 N   0  0  0  0  0  2  0  0  0  0  0  0
    4.7140    1.2280   21.7890 N   0  0  0  0  0  2  0  0  0  0  0  0
    9.3760    1.0180   21.1630 O   0  0  0  0  0  1  0  0  0  0  0  0
  1  2  1  0
  1  8  1  0
  1 17  1  0
  2  9  1  0
  3  4  1  0
  3  7  1  0
  3 16  1  0
  4  5  1  0
  5 20  1  0
  6  7  1  0
  6 20  1  0
  7 14  1  0
  8 11  1  0
  9 10  1  0
 10 11  1  0
 11 12  1  0
 12 13  1  0
 13 18  1  0
 13 21  1  0
 14 15  1  0
 14 18  1  0
 15 19  1  0
 16 19  1  0
M  END
$$$$
