7geu_A_NVO_404
     RDKit          3D

 21 23  0  0  0  0  0  0  0  0999 V2000
   12.7110   -1.0540   22.2590 C   0  0  0  0  0  3  0  0  0  0  0  0
   13.0500   -0.0280   23.1200 C   0  0  0  0  0  2  0  0  0  0  0  0
    3.7110    2.0430   19.4150 C   0  0  0  0  0  2  0  0  0  0  0  0
    3.2300    2.0250   20.6890 C   0  0  0  0  0  2  0  0  0  0  0  0
    3.8760    1.3020   21.6770 C   0  0  0  0  0  2  0  0  0  0  0  0
    5.0090    0.5850   21.3940 C   0  0  0  0  0  2  0  0  0  0  0  0
    5.5460    0.5590   20.0820 C   0  0  0  0  0  3  0  0  0  0  0  0
   11.4010   -1.4360   22.0640 C   0  0  0  0  0  2  0  0  0  0  0  0
   12.0360    0.6270   23.8010 C   0  0  0  0  0  2  0  0  0  0  0  0
   10.7140    0.2470   23.6190 C   0  0  0  0  0  2  0  0  0  0  0  0
   10.3820   -0.7780   22.7410 C   0  0  0  0  0  3  0  0  0  0  0  0
    8.9390   -1.1060   22.4290 C   0  0  0  0  0  2  0  0  0  0  0  0
    8.4240   -0.2340   21.2990 C   0  0  0  0  0  3  0  0  0  0  0  0
    6.6590   -0.2430   19.6360 C   0  0  0  0  0  3  0  0  0  0  0  0
    5.4270    1.2860   17.7780 C   0  0  0  0  0  2  0  0  0  0  0  0
    4.8840    1.3190   19.0770 C   0  0  0  0  0  3  0  0  0  0  0  0
   13.9640   -1.8710   21.3670 Cl  0  0  0  0  0  0  0  0  0  0  0  0
    7.5210   -0.7980   20.5000 N   0  0  0  0  0  2  0  0  0  0  0  0
    7.0810   -0.1810   18.3790 N   0  0  0  0  0  2  0  0  0  0  0  0
    6.4920    0.6010   17.4580 N   0  0  0  0  0  2  0  0  0  0  0  0
    8.8810    0.8830   21.0800 O   0  0  0  0  0  1  0  0  0  0  0  0
  1  2  1  0
  1  8  1  0
  1 17  1  0
  2  9  1  0
  3  4  1  0
  3 16  1  0
  4  5  1  0
  5  6  1  0
  6  7  1  0
  7 14  1  0
  7 16  1  0
  8 11  1  0
  9 10  1  0
 10 11  1  0
 11 12  1  0
 12 13  1  0
 13 18  1  0
 13 21  1  0
 14 18  1  0
 14 19  1  0
 15 16  1  0
 15 20  1  0
 19 20  1  0
M  END
$$$$
