7gew_A_NWI_404
     RDKit          3D

 21 23  0  0  0  0  0  0  0  0999 V2000
   13.5330   -1.1860   21.6300 C   0  0  0  0  0  3  0  0  0  0  0  0
   14.0040   -0.2640   22.5430 C   0  0  0  0  0  2  0  0  0  0  0  0
    5.6190    1.3600   18.8600 C   0  0  0  0  0  3  0  0  0  0  0  0
    4.4560    2.0600   19.2560 C   0  0  0  0  0  2  0  0  0  0  0  0
    4.0950    2.0710   20.5700 C   0  0  0  0  0  2  0  0  0  0  0  0
    4.8790    1.3820   21.4880 C   0  0  0  0  0  2  0  0  0  0  0  0
    6.3210    0.6420   19.8550 C   0  0  0  0  0  3  0  0  0  0  0  0
   12.1930   -1.5060   21.5470 C   0  0  0  0  0  2  0  0  0  0  0  0
   13.1000    0.3340   23.4070 C   0  0  0  0  0  2  0  0  0  0  0  0
   11.7500    0.0240   23.3340 C   0  0  0  0  0  2  0  0  0  0  0  0
   11.2800   -0.8850   22.3950 C   0  0  0  0  0  3  0  0  0  0  0  0
    9.7960   -1.1190   22.2160 C   0  0  0  0  0  2  0  0  0  0  0  0
    9.2460   -0.2460   21.1050 C   0  0  0  0  0  3  0  0  0  0  0  0
    7.3340   -0.2850   19.4570 C   0  0  0  0  0  3  0  0  0  0  0  0
    7.6610   -0.3040   18.1070 C   0  0  0  0  0  2  0  0  0  0  0  0
    6.0380    1.1830   17.5200 C   0  0  0  0  0  2  0  0  0  0  0  0
   14.6620   -2.0030   20.5780 Cl  0  0  0  0  0  0  0  0  0  0  0  0
    8.2080   -0.7640   20.4500 N   0  0  0  0  0  2  0  0  0  0  0  0
    7.0530    0.4090   17.1540 N   0  0  0  0  0  2  0  0  0  0  0  0
    5.9550    0.6720   21.1720 N   0  0  0  0  0  2  0  0  0  0  0  0
    9.8280    0.7730   20.7430 O   0  0  0  0  0  1  0  0  0  0  0  0
  1  2  1  0
  1  8  1  0
  1 17  1  0
  2  9  1  0
  3  4  1  0
  3  7  1  0
  3 16  1  0
  4  5  1  0
  5  6  1  0
  6 20  1  0
  7 14  1  0
  7 20  1  0
  8 11  1  0
  9 10  1  0
 10 11  1  0
 11 12  1  0
 12 13  1  0
 13 18  1  0
 13 21  1  0
 14 15  1  0
 14 18  1  0
 15 19  1  0
 16 19  1  0
M  END
$$$$
