7gex_A_NX9_404
     RDKit          3D

 16 17  0  0  0  0  0  0  0  0999 V2000
   12.9030   -0.8790   21.9640 C   0  0  0  0  0  3  0  0  0  0  0  0
   13.3470    0.1160   22.8120 C   0  0  0  0  0  2  0  0  0  0  0  0
   11.5680   -1.2130   21.8720 C   0  0  0  0  0  2  0  0  0  0  0  0
   12.4220    0.7620   23.6170 C   0  0  0  0  0  2  0  0  0  0  0  0
   11.0780    0.4270   23.5440 C   0  0  0  0  0  2  0  0  0  0  0  0
   10.6350   -0.5440   22.6550 C   0  0  0  0  0  3  0  0  0  0  0  0
    9.1610   -0.7830   22.4350 C   0  0  0  0  0  2  0  0  0  0  0  0
    8.6870    0.0560   21.2660 C   0  0  0  0  0  3  0  0  0  0  0  0
    6.8570    0.1920   19.6490 C   0  0  0  0  0  3  0  0  0  0  0  0
    7.5940    0.3740   18.4740 C   0  0  0  0  0  2  0  0  0  0  0  0
    5.5550    0.2500   19.2540 C   0  0  0  0  0  2  0  0  0  0  0  0
   14.0600   -1.8010   21.0510 Cl  0  0  0  0  0  0  0  0  0  0  0  0
    7.3800   -0.1180   20.9170 N   0  0  0  0  0  2  0  0  0  0  0  0
    6.7900    0.5680   17.4360 N   0  0  0  0  0  2  0  0  0  0  0  0
    5.5420    0.5000   17.9410 N   0  0  0  0  0  2  0  0  0  0  0  0
    9.3910    0.9240   20.7590 O   0  0  0  0  0  1  0  0  0  0  0  0
  1  2  1  0
  1  3  1  0
  1 12  1  0
  2  4  1  0
  3  6  1  0
  4  5  1  0
  5  6  1  0
  6  7  1  0
  7  8  1  0
  8 13  1  0
  8 16  1  0
  9 10  1  0
  9 11  1  0
  9 13  1  0
 10 14  1  0
 11 15  1  0
 14 15  1  0
M  END
$$$$
