7gey_A_NYR_404
     RDKit          3D

 17 18  0  0  0  0  0  0  0  0999 V2000
    5.2330    2.0740   19.7570 C   0  0  0  0  0  1  0  0  0  0  0  0
    6.0230    1.1590   18.8770 C   0  0  0  0  0  3  0  0  0  0  0  0
   13.2140   -0.6690   21.9320 C   0  0  0  0  0  3  0  0  0  0  0  0
   11.9150   -1.0030   21.6120 C   0  0  0  0  0  2  0  0  0  0  0  0
    7.4890   -0.2720   18.0730 C   0  0  0  0  0  2  0  0  0  0  0  0
    6.9590    0.2090   19.2490 C   0  0  0  0  0  3  0  0  0  0  0  0
    7.3600   -0.1850   20.6470 C   0  0  0  0  0  2  0  0  0  0  0  0
    8.7170    0.4110   20.9350 C   0  0  0  0  0  3  0  0  0  0  0  0
   10.9070   -0.0900   21.8860 C   0  0  0  0  0  3  0  0  0  0  0  0
   11.2060    1.1180   22.5100 C   0  0  0  0  0  2  0  0  0  0  0  0
   12.5170    1.4160   22.8420 C   0  0  0  0  0  2  0  0  0  0  0  0
   13.5350    0.5220   22.5480 C   0  0  0  0  0  2  0  0  0  0  0  0
   14.4860   -1.7520   21.4770 Cl  0  0  0  0  0  0  0  0  0  0  0  0
    5.9510    1.2500   17.5440 N   0  0  0  0  0  2  0  0  0  0  0  0
    6.8710    0.3680   17.0780 N   0  0  0  0  0  2  0  0  0  0  0  0
    9.5960   -0.4240   21.5070 N   0  0  0  0  0  2  0  0  0  0  0  0
    8.9730    1.5780   20.6470 O   0  0  0  0  0  1  0  0  0  0  0  0
  1  2  1  0
  2  6  1  0
  2 14  1  0
  3  4  1  0
  3 12  1  0
  3 13  1  0
  4  9  1  0
  5  6  1  0
  5 15  1  0
  6  7  1  0
  7  8  1  0
  8 16  1  0
  8 17  1  0
  9 10  1  0
  9 16  1  0
 10 11  1  0
 11 12  1  0
 14 15  1  0
M  END
$$$$
