7gez_A_NZK_404
     RDKit          3D

 23 25  0  0  0  0  0  0  0  0999 V2000
    8.9360   -4.5430   27.4450 C   0  0  0  0  0  1  0  0  0  0  0  0
    8.2190   -3.3290   26.9350 C   0  0  0  0  0  3  0  0  0  0  0  0
    3.8050    1.7270   19.7580 C   0  0  0  0  0  2  0  0  0  0  0  0
    3.4410    1.7790   21.0720 C   0  0  0  0  0  2  0  0  0  0  0  0
    4.2340    1.1980   22.0480 C   0  0  0  0  0  2  0  0  0  0  0  0
    5.3950    0.5650   21.7160 C   0  0  0  0  0  2  0  0  0  0  0  0
    5.8240    0.4900   20.3690 C   0  0  0  0  0  3  0  0  0  0  0  0
   10.0370   -2.7810   23.8240 C   0  0  0  0  0  2  0  0  0  0  0  0
    9.1880   -3.7370   24.6540 C   0  0  0  0  0  2  0  0  0  0  0  0
    7.6160   -1.8660   25.0530 C   0  0  0  0  0  2  0  0  0  0  0  0
    8.5280   -0.9840   24.2150 C   0  0  0  0  0  2  0  0  0  0  0  0
    9.9400   -0.9380   22.2620 C   0  0  0  0  0  2  0  0  0  0  0  0
    9.0680   -0.0480   21.3910 C   0  0  0  0  0  3  0  0  0  0  0  0
    7.0530   -0.1120   19.9590 C   0  0  0  0  0  3  0  0  0  0  0  0
    7.3640   -0.0650   18.6040 C   0  0  0  0  0  2  0  0  0  0  0  0
    5.4620    1.0460   18.0330 C   0  0  0  0  0  2  0  0  0  0  0  0
    5.0060    1.0890   19.3700 C   0  0  0  0  0  3  0  0  0  0  0  0
    8.3720   -2.9910   25.6260 N   0  0  0  0  0  0  0  0  0  0  0  0
    9.1800   -1.7830   23.1760 N   0  0  0  0  0  0  0  0  0  0  0  0
    7.9330   -0.6250   20.9380 N   0  0  0  0  0  2  0  0  0  0  0  0
    6.6060    0.4990   17.6570 N   0  0  0  0  0  2  0  0  0  0  0  0
    7.4920   -2.6740   27.6690 O   0  0  0  0  0  1  0  0  0  0  0  0
    9.4020    1.0990   21.1130 O   0  0  0  0  0  1  0  0  0  0  0  0
  1  2  1  0
  2 18  1  0
  2 22  1  0
  3  4  1  0
  3 17  1  0
  4  5  1  0
  5  6  1  0
  6  7  1  0
  7 14  1  0
  7 17  1  0
  8  9  1  0
  8 19  1  0
  9 18  1  0
 10 11  1  0
 10 18  1  0
 11 19  1  0
 12 13  1  0
 12 19  1  0
 13 20  1  0
 13 23  1  0
 14 15  1  0
 14 20  1  0
 15 21  1  0
 16 17  1  0
 16 21  1  0
M  END
$$$$
