7gf0_A_O0C_404
     RDKit          3D

 21 23  0  0  0  0  0  0  0  0999 V2000
   13.3100   -1.0510   21.7760 C   0  0  0  0  0  3  0  0  0  0  0  0
   13.7700   -0.1250   22.6910 C   0  0  0  0  0  2  0  0  0  0  0  0
    5.2060    1.3000   18.9530 C   0  0  0  0  0  3  0  0  0  0  0  0
    4.0300    1.9950   19.3500 C   0  0  0  0  0  2  0  0  0  0  0  0
    4.2880    1.3900   21.5400 C   0  0  0  0  0  2  0  0  0  0  0  0
    5.4360    0.6930   21.2930 C   0  0  0  0  0  2  0  0  0  0  0  0
    5.9290    0.6160   19.9660 C   0  0  0  0  0  3  0  0  0  0  0  0
   11.9680   -1.3570   21.6660 C   0  0  0  0  0  2  0  0  0  0  0  0
   12.8570    0.4690   23.5490 C   0  0  0  0  0  2  0  0  0  0  0  0
   11.5090    0.1550   23.4620 C   0  0  0  0  0  2  0  0  0  0  0  0
   11.0480   -0.7390   22.5040 C   0  0  0  0  0  3  0  0  0  0  0  0
    9.5690   -0.9810   22.3130 C   0  0  0  0  0  2  0  0  0  0  0  0
    9.0070   -0.1730   21.1580 C   0  0  0  0  0  3  0  0  0  0  0  0
    7.1030   -0.1060   19.5870 C   0  0  0  0  0  3  0  0  0  0  0  0
    7.4610   -0.1040   18.2390 C   0  0  0  0  0  2  0  0  0  0  0  0
    5.7100    1.2290   17.6300 C   0  0  0  0  0  2  0  0  0  0  0  0
   14.4550   -1.9260   20.7990 Cl  0  0  0  0  0  0  0  0  0  0  0  0
    7.8930   -0.6850   20.5940 N   0  0  0  0  0  2  0  0  0  0  0  0
    6.8040    0.5520   17.2780 N   0  0  0  0  0  2  0  0  0  0  0  0
    3.5790    2.0340   20.5990 N   0  0  0  0  0  2  0  0  0  0  0  0
    9.5150    0.8850   20.8010 O   0  0  0  0  0  1  0  0  0  0  0  0
  1  2  1  0
  1  8  1  0
  1 17  1  0
  2  9  1  0
  3  4  1  0
  3  7  1  0
  3 16  1  0
  4 20  1  0
  5  6  1  0
  5 20  1  0
  6  7  1  0
  7 14  1  0
  8 11  1  0
  9 10  1  0
 10 11  1  0
 11 12  1  0
 12 13  1  0
 13 18  1  0
 13 21  1  0
 14 15  1  0
 14 18  1  0
 15 19  1  0
 16 19  1  0
M  END
$$$$
