7gf1_A_O0R_404
     RDKit          3D

 20 22  0  0  0  0  0  0  0  0999 V2000
   13.3850   -1.1970   21.7340 C   0  0  0  0  0  3  0  0  0  0  0  0
   13.8690   -0.2880   22.6520 C   0  0  0  0  0  2  0  0  0  0  0  0
    5.4840    1.2210   18.9340 C   0  0  0  0  0  2  0  0  0  0  0  0
    6.2070    0.5370   19.9060 C   0  0  0  0  0  3  0  0  0  0  0  0
    5.8000    0.6480   21.3680 C   0  0  0  0  0  3  0  0  0  0  0  0
    6.1110    1.9090   22.1340 C   0  0  0  0  0  2  0  0  0  0  0  0
    4.7020    1.5930   21.7850 C   0  0  0  0  0  2  0  0  0  0  0  0
   12.0400   -1.4870   21.6390 C   0  0  0  0  0  2  0  0  0  0  0  0
   12.9740    0.3280   23.5110 C   0  0  0  0  0  2  0  0  0  0  0  0
   11.6210    0.0460   23.4280 C   0  0  0  0  0  2  0  0  0  0  0  0
   11.1390   -0.8500   22.4840 C   0  0  0  0  0  3  0  0  0  0  0  0
    9.6550   -1.0680   22.3100 C   0  0  0  0  0  2  0  0  0  0  0  0
    9.1560   -0.3000   21.1040 C   0  0  0  0  0  3  0  0  0  0  0  0
    7.3320   -0.1940   19.4960 C   0  0  0  0  0  3  0  0  0  0  0  0
    7.6670   -0.1850   18.1420 C   0  0  0  0  0  2  0  0  0  0  0  0
    5.9050    1.1720   17.6190 C   0  0  0  0  0  2  0  0  0  0  0  0
   14.4930   -1.9860   20.6490 Cl  0  0  0  0  0  0  0  0  0  0  0  0
    8.1240   -0.8680   20.4530 N   0  0  0  0  0  2  0  0  0  0  0  0
    6.9810    0.4880   17.2120 N   0  0  0  0  0  2  0  0  0  0  0  0
    9.6500    0.7710   20.7750 O   0  0  0  0  0  1  0  0  0  0  0  0
  1  2  1  0
  1  8  1  0
  1 17  1  0
  2  9  1  0
  3  4  1  0
  3 16  1  0
  4  5  1  0
  4 14  1  0
  5  6  1  0
  5  7  1  0
  6  7  1  0
  8 11  1  0
  9 10  1  0
 10 11  1  0
 11 12  1  0
 12 13  1  0
 13 18  1  0
 13 20  1  0
 14 15  1  0
 14 18  1  0
 15 19  1  0
 16 19  1  0
M  END
$$$$
