7gf3_A_O1I_404
     RDKit          3D

 20 21  0  0  0  0  0  0  0  0999 V2000
    6.0320    0.8360   21.4030 C   0  0  0  0  0  1  0  0  0  0  0  0
    6.3690    0.6960   19.9400 C   0  0  0  0  0  3  0  0  0  0  0  0
   11.7680    0.0110   23.4290 C   0  0  0  0  0  2  0  0  0  0  0  0
   13.1300    0.2610   23.5150 C   0  0  0  0  0  2  0  0  0  0  0  0
   14.0060   -0.3380   22.6240 C   0  0  0  0  0  2  0  0  0  0  0  0
   13.4980   -1.2030   21.6760 C   0  0  0  0  0  3  0  0  0  0  0  0
   12.1450   -1.4510   21.5710 C   0  0  0  0  0  2  0  0  0  0  0  0
    5.6220    1.3670   18.9820 C   0  0  0  0  0  2  0  0  0  0  0  0
    5.9290    1.2130   17.6450 C   0  0  0  0  0  2  0  0  0  0  0  0
    7.6170   -0.2480   18.1150 C   0  0  0  0  0  2  0  0  0  0  0  0
    7.3960   -0.1510   19.4860 C   0  0  0  0  0  3  0  0  0  0  0  0
    9.2150   -0.0810   21.2610 C   0  0  0  0  0  3  0  0  0  0  0  0
    9.7680   -1.0670   22.2910 C   0  0  0  0  0  3  0  0  0  0  0  0
    9.0000   -1.0340   23.6100 C   0  0  0  0  0  2  0  0  0  0  0  0
   11.2630   -0.8330   22.4490 C   0  0  0  0  0  3  0  0  0  0  0  0
   14.5920   -2.0520   20.6210 Cl  0  0  0  0  0  0  0  0  0  0  0  0
    6.9240    0.4350   17.2030 N   0  0  0  0  0  2  0  0  0  0  0  0
    8.4210   -0.6310   20.3250 N   0  0  0  0  0  2  0  0  0  0  0  0
    9.5500    1.0950   21.2390 O   0  0  0  0  0  1  0  0  0  0  0  0
    7.6290   -1.3400   23.3800 O   0  0  0  0  0  1  0  0  0  0  0  0
  1  2  1  0
  2  8  1  0
  2 11  1  0
  3  4  1  0
  3 15  1  0
  4  5  1  0
  5  6  1  0
  6  7  1  0
  6 16  1  0
  7 15  1  0
  8  9  1  0
  9 17  1  0
 10 11  1  0
 10 17  1  0
 11 18  1  0
 12 13  1  0
 12 18  1  0
 12 19  1  0
 13 14  1  0
 13 15  1  0
 14 20  1  0
M  END
$$$$
