7gf5_A_O2R_404
     RDKit          3D

 23 24  0  0  0  0  0  0  0  0999 V2000
    5.9750   -0.3610   24.9930 C   0  0  0  0  0  1  0  0  0  0  0  0
    7.4620   -0.5370   24.7790 C   0  0  0  0  0  2  0  0  0  0  0  0
    9.6440   -1.4760   21.8740 C   0  0  0  0  0  2  0  0  0  0  0  0
    9.0740   -0.4660   20.8970 C   0  0  0  0  0  3  0  0  0  0  0  0
    7.1770   -0.0550   19.4160 C   0  0  0  0  0  3  0  0  0  0  0  0
    7.6180   -0.0960   18.0930 C   0  0  0  0  0  2  0  0  0  0  0  0
    5.9940    1.3620   17.4200 C   0  0  0  0  0  2  0  0  0  0  0  0
    5.4840    1.4650   18.6980 C   0  0  0  0  0  2  0  0  0  0  0  0
    6.0780    0.7550   19.7370 C   0  0  0  0  0  3  0  0  0  0  0  0
    5.5990    0.9230   21.1570 C   0  0  0  0  0  1  0  0  0  0  0  0
    8.3080    0.5880   25.3770 C   0  0  0  0  0  2  0  0  0  0  0  0
    9.7920    0.3870   25.1860 C   0  0  0  0  0  2  0  0  0  0  0  0
   11.2200   -0.1010   23.2920 C   0  0  0  0  0  3  0  0  0  0  0  0
   12.4920    0.3340   23.6390 C   0  0  0  0  0  2  0  0  0  0  0  0
   13.5930   -0.1520   22.9500 C   0  0  0  0  0  2  0  0  0  0  0  0
   13.4060   -1.1030   21.9670 C   0  0  0  0  0  3  0  0  0  0  0  0
   12.1510   -1.5700   21.6450 C   0  0  0  0  0  2  0  0  0  0  0  0
   11.0340   -1.0600   22.2960 C   0  0  0  0  0  3  0  0  0  0  0  0
   14.7910   -1.7550   21.1250 Cl  0  0  0  0  0  0  0  0  0  0  0  0
    7.8440   -0.7700   20.4390 N   0  0  0  0  0  2  0  0  0  0  0  0
    7.0470    0.6000   17.1030 N   0  0  0  0  0  2  0  0  0  0  0  0
   10.0670    0.4620   23.7760 O   0  0  0  0  0  0  0  0  0  0  0  0
    9.7000    0.5340   20.5520 O   0  0  0  0  0  1  0  0  0  0  0  0
  1  2  1  0
  2 11  1  0
  3  4  1  0
  3 18  1  0
  4 20  1  0
  4 23  1  0
  5  6  1  0
  5  9  1  0
  5 20  1  0
  6 21  1  0
  7  8  1  0
  7 21  1  0
  8  9  1  0
  9 10  1  0
 11 12  1  0
 12 22  1  0
 13 14  1  0
 13 18  1  0
 13 22  1  0
 14 15  1  0
 15 16  1  0
 16 17  1  0
 16 19  1  0
 17 18  1  0
M  END
$$$$
