7gf7_A_O3U_404
     RDKit          3D

 21 22  0  0  0  0  0  0  0  0999 V2000
   10.1680   -5.5200   26.0020 C   0  0  0  0  0  1  0  0  0  0  0  0
    7.5740   -5.2640   25.0630 C   0  0  0  0  0  3  0  0  0  0  0  0
    6.3520   -4.9620   22.5650 C   0  0  0  0  0  3  0  0  0  0  0  0
    7.6130   -4.5230   22.7720 C   0  0  0  0  0  3  0  0  0  0  0  0
    7.9650   -3.0390   20.8380 C   0  0  0  0  0  3  0  0  0  0  0  0
    9.0490   -2.5300   19.9150 C   0  0  0  0  0  1  0  0  0  0  0  0
    5.9380   -5.0930   21.2130 C   0  0  0  0  0  2  0  0  0  0  0  0
    6.3040   -5.7310   24.9550 C   0  0  0  0  0  3  0  0  0  0  0  0
    5.7430   -6.5050   26.0020 C   0  0  0  0  0  2  0  0  0  0  0  0
    5.4780   -5.5080   23.6890 C   0  0  0  0  0  0  0  0  0  0  0  0
    4.5080   -4.3010   23.7650 C   0  0  0  0  0  2  0  0  0  0  0  0
    3.1110   -4.6280   24.2810 C   0  0  0  0  0  2  0  0  0  0  0  0
    2.4960   -5.7610   23.4920 C   0  0  0  0  0  2  0  0  0  0  0  0
    3.3560   -7.0030   23.5970 C   0  0  0  0  0  2  0  0  0  0  0  0
    4.7650   -6.7440   23.0800 C   0  0  0  0  0  2  0  0  0  0  0  0
    5.2590   -7.1470   26.8200 N   0  0  0  0  0  1  0  0  0  0  0  0
    8.3910   -3.8620   21.8370 N   0  0  0  0  0  2  0  0  0  0  0  0
    8.1920   -4.6800   23.9930 N   0  0  0  0  0  2  0  0  0  0  0  0
    5.6630   -5.1770   20.1040 N   0  0  0  0  0  1  0  0  0  0  0  0
    6.8230   -2.5860   20.7930 O   0  0  0  0  0  1  0  0  0  0  0  0
    8.4740   -5.3360   26.5670 S   0  0  0  0  0  0  0  0  0  0  0  0
  1 21  1  0
  2  8  1  0
  2 18  1  0
  2 21  1  0
  3  4  1  0
  3  7  1  0
  3 10  1  0
  4 17  1  0
  4 18  1  0
  5  6  1  0
  5 17  1  0
  5 20  1  0
  7 19  1  0
  8  9  1  0
  8 10  1  0
  9 16  1  0
 10 11  1  0
 10 15  1  0
 11 12  1  0
 12 13  1  0
 13 14  1  0
 14 15  1  0
M  END
$$$$
