7gf8_A_O4L_404
     RDKit          3D

 24 26  0  0  0  0  0  0  0  0999 V2000
    9.3200   -2.1820   23.9130 C   0  0  0  0  0  1  0  0  0  0  0  0
    8.5830   -2.9790   22.8900 C   0  0  0  0  0  3  0  0  0  0  0  0
    7.7440   -6.7500   28.9360 C   0  0  0  0  0  3  0  0  0  0  0  0
    6.4130   -6.1620   28.7730 C   0  0  0  0  0  3  0  0  0  0  0  0
    5.4480   -6.3100   29.7690 C   0  0  0  0  0  2  0  0  0  0  0  0
    4.1780   -5.7860   29.5820 C   0  0  0  0  0  2  0  0  0  0  0  0
    3.8650   -5.1110   28.4180 C   0  0  0  0  0  2  0  0  0  0  0  0
    4.8170   -4.9440   27.4240 C   0  0  0  0  0  2  0  0  0  0  0  0
    6.1020   -5.4680   27.5920 C   0  0  0  0  0  3  0  0  0  0  0  0
    8.3390   -2.6980   21.5690 C   0  0  0  0  0  2  0  0  0  0  0  0
    7.6010   -3.7820   21.0170 C   0  0  0  0  0  3  0  0  0  0  0  0
    7.1560   -3.8690   19.6180 C   0  0  0  0  0  3  0  0  0  0  0  0
    7.6840   -2.8520   18.6300 C   0  0  0  0  0  1  0  0  0  0  0  0
    7.4050   -4.7140   22.0300 C   0  0  0  0  0  3  0  0  0  0  0  0
    6.6800   -6.0160   22.0200 C   0  0  0  0  0  1  0  0  0  0  0  0
    7.0540   -4.5890   25.2480 C   0  0  0  0  0  3  0  0  0  0  0  0
    7.1470   -5.3390   26.5640 C   0  0  0  0  0  3  0  0  0  0  0  0
    8.0130   -4.1900   23.1420 N   0  0  0  0  0  0  0  0  0  0  0  0
    8.0270   -4.8580   24.3540 N   0  0  0  0  0  2  0  0  0  0  0  0
    8.3380   -5.8800   26.7350 N   0  0  0  0  0  2  0  0  0  0  0  0
    8.5920   -6.5640   27.9070 N   0  0  0  0  0  2  0  0  0  0  0  0
    6.3910   -4.7620   19.2770 O   0  0  0  0  0  1  0  0  0  0  0  0
    6.1390   -3.7920   25.0300 O   0  0  0  0  0  1  0  0  0  0  0  0
    8.1040   -7.3540   29.9390 O   0  0  0  0  0  1  0  0  0  0  0  0
  1  2  1  0
  2 10  1  0
  2 18  1  0
  3  4  1  0
  3 21  1  0
  3 24  1  0
  4  5  1  0
  4  9  1  0
  5  6  1  0
  6  7  1  0
  7  8  1  0
  8  9  1  0
  9 17  1  0
 10 11  1  0
 11 12  1  0
 11 14  1  0
 12 13  1  0
 12 22  1  0
 14 15  1  0
 14 18  1  0
 16 17  1  0
 16 19  1  0
 16 23  1  0
 17 20  1  0
 18 19  1  0
 20 21  1  0
M  END
$$$$
