7gfa_A_Z26_404
     RDKit          3D

 23 25  0  0  0  0  0  0  0  0999 V2000
   10.9810   -1.1580   22.2600 C   0  0  0  0  0  3  0  0  0  0  0  0
    5.3190    1.3290   18.8110 C   0  0  0  0  0  3  0  0  0  0  0  0
    5.7490    1.3540   17.4630 C   0  0  0  0  0  2  0  0  0  0  0  0
    7.5180   -0.0230   17.8850 C   0  0  0  0  0  2  0  0  0  0  0  0
    5.6950    0.5790   21.0970 C   0  0  0  0  0  2  0  0  0  0  0  0
    4.6110    1.2990   21.5090 C   0  0  0  0  0  2  0  0  0  0  0  0
    3.8590    2.0260   20.6020 C   0  0  0  0  0  2  0  0  0  0  0  0
    4.1980    2.0540   19.2830 C   0  0  0  0  0  2  0  0  0  0  0  0
   12.4940    0.2270   23.5570 C   0  0  0  0  0  2  0  0  0  0  0  0
    9.5720   -1.5160   21.8500 C   0  0  0  0  0  2  0  0  0  0  0  0
   11.2120   -0.2530   23.2980 C   0  0  0  0  0  3  0  0  0  0  0  0
   10.2280    1.1140   25.0000 C   0  0  0  0  0  1  0  0  0  0  0  0
    9.1210   -0.5280   20.7910 C   0  0  0  0  0  3  0  0  0  0  0  0
   12.0680   -1.6220   21.5250 C   0  0  0  0  0  2  0  0  0  0  0  0
   13.3320   -1.1410   21.7920 C   0  0  0  0  0  3  0  0  0  0  0  0
   13.5590   -0.2160   22.7920 C   0  0  0  0  0  2  0  0  0  0  0  0
    7.2230   -0.1400   19.2430 C   0  0  0  0  0  3  0  0  0  0  0  0
    6.0820    0.5600   19.7340 C   0  0  0  0  0  3  0  0  0  0  0  0
   14.6650   -1.6900   20.8180 Cl  0  0  0  0  0  0  0  0  0  0  0  0
    6.8100    0.6990   17.0060 N   0  0  0  0  0  2  0  0  0  0  0  0
    7.9850   -0.8870   20.1540 N   0  0  0  0  0  2  0  0  0  0  0  0
    9.7270    0.5210   20.5750 O   0  0  0  0  0  1  0  0  0  0  0  0
   10.0990    0.0890   24.0140 O   0  0  0  0  0  0  0  0  0  0  0  0
  1 10  1  0
  1 11  1  0
  1 14  1  0
  2  3  1  0
  2  8  1  0
  2 18  1  0
  3 20  1  0
  4 17  1  0
  4 20  1  0
  5  6  1  0
  5 18  1  0
  6  7  1  0
  7  8  1  0
  9 11  1  0
  9 16  1  0
 10 13  1  0
 11 23  1  0
 12 23  1  0
 13 21  1  0
 13 22  1  0
 14 15  1  0
 15 16  1  0
 15 19  1  0
 17 18  1  0
 17 21  1  0
M  END
$$$$
