7gfb_A_NSR_404
     RDKit          3D

 24 27  0  0  0  0  0  0  0  0999 V2000
   13.5880   -1.1060   21.4980 C   0  0  0  0  0  3  0  0  0  0  0  0
   14.0830   -0.2200   22.4270 C   0  0  0  0  0  2  0  0  0  0  0  0
    6.0930    1.0240   17.5340 C   0  0  0  0  0  2  0  0  0  0  0  0
    5.6040    1.1640   18.8550 C   0  0  0  0  0  3  0  0  0  0  0  0
    4.4800    1.9570   19.1870 C   0  0  0  0  0  2  0  0  0  0  0  0
    4.0820    2.0850   20.4860 C   0  0  0  0  0  2  0  0  0  0  0  0
    4.7530    1.4280   21.4970 C   0  0  0  0  0  2  0  0  0  0  0  0
    5.8340    0.6450   21.2180 C   0  0  0  0  0  2  0  0  0  0  0  0
    6.3040    0.4980   19.8900 C   0  0  0  0  0  3  0  0  0  0  0  0
   11.3750   -0.9140   22.4010 C   0  0  0  0  0  3  0  0  0  0  0  0
   12.2530   -1.4460   21.4620 C   0  0  0  0  0  2  0  0  0  0  0  0
   13.2310    0.2930   23.3890 C   0  0  0  0  0  2  0  0  0  0  0  0
   11.8950   -0.0770   23.3880 C   0  0  0  0  0  3  0  0  0  0  0  0
    9.7340    0.5090   24.1810 C   0  0  0  0  0  2  0  0  0  0  0  0
    9.1440   -0.7520   23.6050 C   0  0  0  0  0  2  0  0  0  0  0  0
    9.8790   -1.1400   22.3050 C   0  0  0  0  0  3  0  0  0  0  0  0
    9.3390   -0.3260   21.1280 C   0  0  0  0  0  3  0  0  0  0  0  0
    7.4610   -0.2510   19.5410 C   0  0  0  0  0  3  0  0  0  0  0  0
    7.8220   -0.3000   18.2000 C   0  0  0  0  0  2  0  0  0  0  0  0
   14.6830   -1.8760   20.3860 Cl  0  0  0  0  0  0  0  0  0  0  0  0
    8.2180   -0.8190   20.5800 N   0  0  0  0  0  2  0  0  0  0  0  0
    7.1680    0.3190   17.2120 N   0  0  0  0  0  2  0  0  0  0  0  0
   11.1450    0.3680   24.4490 O   0  0  0  0  0  0  0  0  0  0  0  0
    9.8850    0.7010   20.7310 O   0  0  0  0  0  1  0  0  0  0  0  0
  1  2  1  0
  1 11  1  0
  1 20  1  0
  2 12  1  0
  3  4  1  0
  3 22  1  0
  4  5  1  0
  4  9  1  0
  5  6  1  0
  6  7  1  0
  7  8  1  0
  8  9  1  0
  9 18  1  0
 10 11  1  0
 10 13  1  0
 10 16  1  0
 12 13  1  0
 13 23  1  0
 14 15  1  0
 14 23  1  0
 15 16  1  0
 16 17  1  0
 17 21  1  0
 17 24  1  0
 18 19  1  0
 18 21  1  0
 19 22  1  0
M  END
$$$$
