7gfd_A_O8L_404
     RDKit          3D

 25 27  0  0  0  0  0  0  0  0999 V2000
    9.1190   -1.1830   22.9280 C   0  0  0  0  0  1  0  0  0  0  0  0
    9.5820    0.2210   22.5040 C   0  0  0  0  0  3  0  0  0  0  0  0
   11.9460   -0.5990   22.0930 C   0  0  0  0  0  2  0  0  0  0  0  0
   13.3020   -0.3570   21.9870 C   0  0  0  0  0  3  0  0  0  0  0  0
   13.8450    0.8830   22.2630 C   0  0  0  0  0  2  0  0  0  0  0  0
   12.9870    1.9020   22.6530 C   0  0  0  0  0  3  0  0  0  0  0  0
   12.8420    4.2620   22.2220 C   0  0  0  0  0  3  0  0  0  0  0  0
   13.6640    4.5850   20.9680 C   0  0  0  0  0  2  0  0  0  0  0  0
   13.8520    5.9520   21.6090 C   0  0  0  0  0  3  0  0  0  0  0  0
   11.6240    1.6800   22.7680 C   0  0  0  0  0  2  0  0  0  0  0  0
    8.8530    1.0530   21.4430 C   0  0  0  0  0  3  0  0  0  0  0  0
    7.1840    0.5050   19.5940 C   0  0  0  0  0  3  0  0  0  0  0  0
    7.2490    0.1850   18.2380 C   0  0  0  0  0  2  0  0  0  0  0  0
    5.3670    1.3870   17.7660 C   0  0  0  0  0  2  0  0  0  0  0  0
    5.1750    1.7110   19.0920 C   0  0  0  0  0  2  0  0  0  0  0  0
    6.0690    1.2460   20.0500 C   0  0  0  0  0  3  0  0  0  0  0  0
    5.7100    1.3400   21.5110 C   0  0  0  0  0  1  0  0  0  0  0  0
   11.0900    0.4320   22.4710 C   0  0  0  0  0  3  0  0  0  0  0  0
   14.3550   -1.6480   21.4730 Cl  0  0  0  0  0  0  0  0  0  0  0  0
    8.3570    0.3530   20.3840 N   0  0  0  0  0  2  0  0  0  0  0  0
    6.3680    0.6170   17.3300 N   0  0  0  0  0  2  0  0  0  0  0  0
   13.2320    5.5740   22.7410 N   0  0  0  0  0  2  0  0  0  0  0  0
    8.7730    2.2760   21.5350 O   0  0  0  0  0  1  0  0  0  0  0  0
   13.4660    3.1660   22.9320 O   0  0  0  0  0  0  0  0  0  0  0  0
   14.3730    7.0130   21.2760 O   0  0  0  0  0  1  0  0  0  0  0  0
  1  2  1  0
  2 11  1  0
  2 18  1  0
  3  4  1  0
  3 18  1  0
  4  5  1  0
  4 19  1  0
  5  6  1  0
  6 10  1  0
  6 24  1  0
  7  8  1  0
  7 22  1  0
  7 24  1  0
  8  9  1  0
  9 22  1  0
  9 25  1  0
 10 18  1  0
 11 20  1  0
 11 23  1  0
 12 13  1  0
 12 16  1  0
 12 20  1  0
 13 21  1  0
 14 15  1  0
 14 21  1  0
 15 16  1  0
 16 17  1  0
M  END
$$$$
