7gfe_A_O9O_404
     RDKit          3D

 30 33  0  0  0  0  0  0  0  0999 V2000
   13.6360    7.0820   25.0990 C   0  0  0  0  0  1  0  0  0  0  0  0
   14.0980    5.7380   23.1740 C   0  0  0  0  0  3  0  0  0  0  0  0
   11.5310   -0.5070   22.1220 C   0  0  0  0  0  3  0  0  0  0  0  0
    9.3850   -0.2710   20.9090 C   0  0  0  0  0  3  0  0  0  0  0  0
    8.1770   -1.0800   20.4800 C   0  0  0  0  0  2  0  0  0  0  0  0
    7.3640   -0.3040   19.4650 C   0  0  0  0  0  3  0  0  0  0  0  0
    7.6390   -0.3590   18.1130 C   0  0  0  0  0  2  0  0  0  0  0  0
    5.9810    1.1000   17.5470 C   0  0  0  0  0  2  0  0  0  0  0  0
    5.5810    1.2620   18.8930 C   0  0  0  0  0  3  0  0  0  0  0  0
    4.5270    2.1160   19.2960 C   0  0  0  0  0  2  0  0  0  0  0  0
    4.2080    2.2470   20.6160 C   0  0  0  0  0  2  0  0  0  0  0  0
    4.9090    1.5510   21.5850 C   0  0  0  0  0  2  0  0  0  0  0  0
   14.6780    5.6590   21.9030 C   0  0  0  0  0  2  0  0  0  0  0  0
    5.9280    0.7130   21.2380 C   0  0  0  0  0  2  0  0  0  0  0  0
    6.2990    0.5380   19.8790 C   0  0  0  0  0  3  0  0  0  0  0  0
   11.6030    0.7940   22.6090 C   0  0  0  0  0  2  0  0  0  0  0  0
   14.5900    4.4470   21.2410 C   0  0  0  0  0  2  0  0  0  0  0  0
   13.9450    3.3750   21.8360 C   0  0  0  0  0  2  0  0  0  0  0  0
   13.4140    3.5800   23.1110 C   0  0  0  0  0  3  0  0  0  0  0  0
   12.7890    1.2520   23.1570 C   0  0  0  0  0  3  0  0  0  0  0  0
   13.9070    0.4370   23.2320 C   0  0  0  0  0  2  0  0  0  0  0  0
   13.8050   -0.8540   22.7570 C   0  0  0  0  0  3  0  0  0  0  0  0
   12.6430   -1.3400   22.1890 C   0  0  0  0  0  2  0  0  0  0  0  0
   15.1540   -1.9300   22.9570 Cl  0  0  0  0  0  0  0  0  0  0  0  0
   10.3310   -0.9870   21.5510 N   0  0  0  0  0  2  0  0  0  0  0  0
    6.9830    0.3210   17.1630 N   0  0  0  0  0  2  0  0  0  0  0  0
   13.4810    4.7250   23.7820 N   0  0  0  0  0  2  0  0  0  0  0  0
   14.1980    6.9400   23.7840 O   0  0  0  0  0  0  0  0  0  0  0  0
   12.7940    2.5270   23.7170 O   0  0  0  0  0  0  0  0  0  0  0  0
    9.4730    0.9340   20.6820 O   0  0  0  0  0  1  0  0  0  0  0  0
  1 28  1  0
  2 13  1  0
  2 27  1  0
  2 28  1  0
  3 16  1  0
  3 23  1  0
  3 25  1  0
  4  5  1  0
  4 25  1  0
  4 30  1  0
  5  6  1  0
  6  7  1  0
  6 15  1  0
  7 26  1  0
  8  9  1  0
  8 26  1  0
  9 10  1  0
  9 15  1  0
 10 11  1  0
 11 12  1  0
 12 14  1  0
 13 17  1  0
 14 15  1  0
 16 20  1  0
 17 18  1  0
 18 19  1  0
 19 27  1  0
 19 29  1  0
 20 21  1  0
 20 29  1  0
 21 22  1  0
 22 23  1  0
 22 24  1  0
M  END
$$$$
