7gff_A_O9X_404
     RDKit          3D

 16 16  0  0  0  0  0  0  0  0999 V2000
   10.4300   -2.0140   22.2150 C   0  0  0  0  0  1  0  0  0  0  0  0
    9.8450   -0.6930   22.6630 C   0  0  0  0  0  3  0  0  0  0  0  0
   10.6420    0.8420   24.2580 C   0  0  0  0  0  3  0  0  0  0  0  0
    9.1920    0.0710   21.5160 C   0  0  0  0  0  3  0  0  0  0  0  0
    7.1570    0.1030   20.0990 C   0  0  0  0  0  3  0  0  0  0  0  0
    7.5350   -0.0590   18.7640 C   0  0  0  0  0  2  0  0  0  0  0  0
    5.6020    0.8930   18.0100 C   0  0  0  0  0  2  0  0  0  0  0  0
    5.1460    1.1160   19.2940 C   0  0  0  0  0  2  0  0  0  0  0  0
    5.9240    0.7210   20.3780 C   0  0  0  0  0  3  0  0  0  0  0  0
    5.4470    0.9530   21.7890 C   0  0  0  0  0  1  0  0  0  0  0  0
   11.4620    1.9050   24.1030 F   0  0  0  0  0  0  0  0  0  0  0  0
   10.9500    0.1120   25.3360 F   0  0  0  0  0  0  0  0  0  0  0  0
    7.9630   -0.3730   21.1610 N   0  0  0  0  0  2  0  0  0  0  0  0
    6.7790    0.3270   17.7310 N   0  0  0  0  0  2  0  0  0  0  0  0
   10.9440    0.0610   23.2030 O   0  0  0  0  0  0  0  0  0  0  0  0
    9.7510    1.0410   21.0110 O   0  0  0  0  0  1  0  0  0  0  0  0
  1  2  1  0
  2  4  1  0
  2 15  1  0
  3 11  1  0
  3 12  1  0
  3 15  1  0
  4 13  1  0
  4 16  1  0
  5  6  1  0
  5  9  1  0
  5 13  1  0
  6 14  1  0
  7  8  1  0
  7 14  1  0
  8  9  1  0
  9 10  1  0
M  END
$$$$
