7gfg_A_OAO_404
     RDKit          3D

 26 28  0  0  0  0  0  0  0  0999 V2000
    7.2510   -0.4710   28.5770 C   0  0  0  0  0  1  0  0  0  0  0  0
    8.5280   -0.2570   27.8470 C   0  0  0  0  0  3  0  0  0  0  0  0
    8.6250   -0.4240   20.8970 C   0  0  0  0  0  3  0  0  0  0  0  0
    6.7930    0.0220   19.3480 C   0  0  0  0  0  3  0  0  0  0  0  0
    7.2290    0.1050   18.0280 C   0  0  0  0  0  2  0  0  0  0  0  0
    5.5470    1.5640   17.4940 C   0  0  0  0  0  2  0  0  0  0  0  0
    5.0440    1.5420   18.7790 C   0  0  0  0  0  2  0  0  0  0  0  0
    5.6730    0.7680   19.7470 C   0  0  0  0  0  3  0  0  0  0  0  0
    5.2150    0.8160   21.1820 C   0  0  0  0  0  1  0  0  0  0  0  0
   10.4970   -0.1980   23.5350 C   0  0  0  0  0  2  0  0  0  0  0  0
    9.9170    0.6830   26.6140 C   0  0  0  0  0  3  0  0  0  0  0  0
   10.6560    1.6240   25.7260 C   0  0  0  0  0  2  0  0  0  0  0  0
   11.7070    0.1750   24.0970 C   0  0  0  0  0  3  0  0  0  0  0  0
   12.9080   -0.2690   23.5680 C   0  0  0  0  0  2  0  0  0  0  0  0
   12.8670   -1.1270   22.4880 C   0  0  0  0  0  3  0  0  0  0  0  0
   11.6770   -1.5160   21.9130 C   0  0  0  0  0  2  0  0  0  0  0  0
   10.4780   -1.0500   22.4390 C   0  0  0  0  0  3  0  0  0  0  0  0
    9.1660   -1.4820   21.8370 C   0  0  0  0  0  2  0  0  0  0  0  0
   14.3540   -1.8100   21.8930 Cl  0  0  0  0  0  0  0  0  0  0  0  0
    9.5330   -1.0830   27.8760 N   0  0  0  0  0  2  0  0  0  0  0  0
    7.4790   -0.7670   20.2870 N   0  0  0  0  0  2  0  0  0  0  0  0
    6.6270    0.8710   17.1090 N   0  0  0  0  0  2  0  0  0  0  0  0
    8.7240    0.8570   27.0680 N   0  0  0  0  0  2  0  0  0  0  0  0
   10.4910   -0.4510   27.0370 O   0  0  0  0  0  0  0  0  0  0  0  0
   11.8300    1.0130   25.1770 O   0  0  0  0  0  0  0  0  0  0  0  0
    9.1920    0.6520   20.7320 O   0  0  0  0  0  1  0  0  0  0  0  0
  1  2  1  0
  2 20  1  0
  2 23  1  0
  3 18  1  0
  3 21  1  0
  3 26  1  0
  4  5  1  0
  4  8  1  0
  4 21  1  0
  5 22  1  0
  6  7  1  0
  6 22  1  0
  7  8  1  0
  8  9  1  0
 10 13  1  0
 10 17  1  0
 11 12  1  0
 11 23  1  0
 11 24  1  0
 12 25  1  0
 13 14  1  0
 13 25  1  0
 14 15  1  0
 15 16  1  0
 15 19  1  0
 16 17  1  0
 17 18  1  0
 20 24  1  0
M  END
$$$$
