7gfh_A_OBO_404
     RDKit          3D

 20 22  0  0  0  0  0  0  0  0999 V2000
   13.3790   -1.1350   21.7280 C   0  0  0  0  0  3  0  0  0  0  0  0
   13.8080   -0.1950   22.6390 C   0  0  0  0  0  2  0  0  0  0  0  0
    5.4980    1.4080   18.7400 C   0  0  0  0  0  3  0  0  0  0  0  0
    4.5870    1.8340   20.6410 C   0  0  0  0  0  2  0  0  0  0  0  0
    6.1900    0.6870   19.7170 C   0  0  0  0  0  3  0  0  0  0  0  0
   12.0480   -1.4820   21.6130 C   0  0  0  0  0  2  0  0  0  0  0  0
   12.8730    0.3910   23.4780 C   0  0  0  0  0  2  0  0  0  0  0  0
   11.5310    0.0550   23.3720 C   0  0  0  0  0  2  0  0  0  0  0  0
   11.1020   -0.8690   22.4270 C   0  0  0  0  0  3  0  0  0  0  0  0
    9.6290   -1.1300   22.2050 C   0  0  0  0  0  2  0  0  0  0  0  0
    9.1010   -0.2790   21.0640 C   0  0  0  0  0  3  0  0  0  0  0  0
    7.3130   -0.0880   19.4180 C   0  0  0  0  0  3  0  0  0  0  0  0
    7.7060   -0.0980   18.0850 C   0  0  0  0  0  2  0  0  0  0  0  0
    5.9900    1.2880   17.4480 C   0  0  0  0  0  2  0  0  0  0  0  0
   14.5500   -1.9340   20.7110 Cl  0  0  0  0  0  0  0  0  0  0  0  0
    8.0000   -0.7630   20.4550 N   0  0  0  0  0  2  0  0  0  0  0  0
    7.0690    0.5680   17.1140 N   0  0  0  0  0  2  0  0  0  0  0  0
    4.4760    2.1300   19.3600 N   0  0  0  0  0  2  0  0  0  0  0  0
    5.5950    0.9790   20.9190 N   0  0  0  0  0  2  0  0  0  0  0  0
    9.6520    0.7700   20.7320 O   0  0  0  0  0  1  0  0  0  0  0  0
  1  2  1  0
  1  6  1  0
  1 15  1  0
  2  7  1  0
  3  5  1  0
  3 14  1  0
  3 18  1  0
  4 18  1  0
  4 19  1  0
  5 12  1  0
  5 19  1  0
  6  9  1  0
  7  8  1  0
  8  9  1  0
  9 10  1  0
 10 11  1  0
 11 16  1  0
 11 20  1  0
 12 13  1  0
 12 16  1  0
 13 17  1  0
 14 17  1  0
M  END
$$$$
