7gfi_A_OCI_404
     RDKit          3D

 23 24  0  0  0  0  0  0  0  0999 V2000
    4.9850    0.9130   21.4260 C   0  0  0  0  0  1  0  0  0  0  0  0
    5.5800    0.7140   20.0550 C   0  0  0  0  0  3  0  0  0  0  0  0
   12.9300   -0.4680   22.5510 C   0  0  0  0  0  3  0  0  0  0  0  0
   13.1290    0.8150   23.0320 C   0  0  0  0  0  2  0  0  0  0  0  0
   12.0180    1.5680   23.4150 C   0  0  0  0  0  3  0  0  0  0  0  0
   10.7480    0.9950   23.3580 C   0  0  0  0  0  2  0  0  0  0  0  0
    5.0210    1.3400   18.9450 C   0  0  0  0  0  2  0  0  0  0  0  0
    5.5890    1.1590   17.6990 C   0  0  0  0  0  2  0  0  0  0  0  0
    7.1960   -0.2290   18.5390 C   0  0  0  0  0  2  0  0  0  0  0  0
    6.7140   -0.0930   19.8430 C   0  0  0  0  0  3  0  0  0  0  0  0
    8.5830   -0.1740   21.3640 C   0  0  0  0  0  3  0  0  0  0  0  0
    9.1740   -0.8290   22.5970 C   0  0  0  0  0  2  0  0  0  0  0  0
   10.5650   -0.2920   22.8560 C   0  0  0  0  0  3  0  0  0  0  0  0
   11.6740   -1.0280   22.4610 C   0  0  0  0  0  2  0  0  0  0  0  0
   14.2990   -1.3810   21.9780 Cl  0  0  0  0  0  0  0  0  0  0  0  0
    6.6650    0.3950   17.4830 N   0  0  0  0  0  2  0  0  0  0  0  0
    7.3950   -0.6640   20.9490 N   0  0  0  0  0  2  0  0  0  0  0  0
   12.2050    2.9600   23.7530 N   0  0  0  0  0  2  0  0  0  0  0  0
   10.1300    4.1250   22.7020 N   0  0  0  0  0  1  0  0  0  0  0  0
    9.1450    0.7590   20.8120 O   0  0  0  0  0  1  0  0  0  0  0  0
   10.3370    3.7850   25.1180 O   0  0  0  0  0  1  0  0  0  0  0  0
   11.7430    5.4400   23.9670 O   0  0  0  0  0  1  0  0  0  0  0  0
   11.1130    4.1620   23.9830 S   0  0  0  0  0  4  0  0  0  0  0  0
  1  2  1  0
  2  7  1  0
  2 10  1  0
  3  4  1  0
  3 14  1  0
  3 15  1  0
  4  5  1  0
  5  6  1  0
  5 18  1  0
  6 13  1  0
  7  8  1  0
  8 16  1  0
  9 10  1  0
  9 16  1  0
 10 17  1  0
 11 12  1  0
 11 17  1  0
 11 20  1  0
 12 13  1  0
 13 14  1  0
 18 23  1  0
 19 23  1  0
 21 23  1  0
 22 23  1  0
M  END
$$$$
