7gfj_A_OD7_404
     RDKit          3D

 34 38  0  0  0  0  0  0  0  0999 V2000
    4.2240    1.4020   23.0930 C   0  0  0  0  0  1  0  0  0  0  0  0
    4.9120    1.4200   20.7870 C   0  0  0  0  0  3  0  0  0  0  0  0
   14.1820   -1.5490   24.6940 C   0  0  0  0  0  2  0  0  0  0  0  0
   14.5920   -2.2400   23.5780 C   0  0  0  0  0  2  0  0  0  0  0  0
   14.0200   -1.9110   22.3620 C   0  0  0  0  0  2  0  0  0  0  0  0
    9.8050   -1.4080   23.4780 C   0  0  0  0  0  3  0  0  0  0  0  0
    8.7630   -1.2260   24.3880 C   0  0  0  0  0  2  0  0  0  0  0  0
    8.3300   -2.2830   25.1700 C   0  0  0  0  0  2  0  0  0  0  0  0
    8.9120   -3.5400   25.0650 C   0  0  0  0  0  3  0  0  0  0  0  0
    9.9640   -3.7090   24.1730 C   0  0  0  0  0  2  0  0  0  0  0  0
   10.4100   -2.6620   23.3840 C   0  0  0  0  0  2  0  0  0  0  0  0
    8.3700   -4.7110   25.8590 C   0  0  0  0  0  3  0  0  0  0  0  0
    4.6010    1.8740   19.5070 C   0  0  0  0  0  2  0  0  0  0  0  0
    8.8620   -4.7260   27.3090 C   0  0  0  0  0  2  0  0  0  0  0  0
    8.3350   -5.9530   28.0340 C   0  0  0  0  0  2  0  0  0  0  0  0
    6.3520   -6.0080   26.5980 C   0  0  0  0  0  2  0  0  0  0  0  0
    6.8400   -4.7890   25.8350 C   0  0  0  0  0  2  0  0  0  0  0  0
    6.8150    0.2890   19.9340 C   0  0  0  0  0  3  0  0  0  0  0  0
    6.0250    0.6220   21.0230 C   0  0  0  0  0  2  0  0  0  0  0  0
    5.3950    1.5220   18.4280 C   0  0  0  0  0  2  0  0  0  0  0  0
    6.5120    0.7210   18.6460 C   0  0  0  0  0  3  0  0  0  0  0  0
    8.8190   -1.0220   20.7890 C   0  0  0  0  0  2  0  0  0  0  0  0
    9.7480    0.0030   21.4380 C   0  0  0  0  0  3  0  0  0  0  0  0
   11.3800    0.4710   23.1760 C   0  0  0  0  0  2  0  0  0  0  0  0
   12.6450   -0.3390   23.3260 C   0  0  0  0  0  3  0  0  0  0  0  0
   13.2000   -0.5780   24.5790 C   0  0  0  0  0  2  0  0  0  0  0  0
    7.4850    0.2630   17.7880 N   0  0  0  0  0  2  0  0  0  0  0  0
    8.3560   -0.4140   18.4850 N   0  0  0  0  0  2  0  0  0  0  0  0
    7.9710   -0.4140   19.7870 N   0  0  0  0  0  0  0  0  0  0  0  0
   10.2550   -0.3150   22.6660 N   0  0  0  0  0  0  0  0  0  0  0  0
   13.0670   -0.9720   22.2170 N   0  0  0  0  0  2  0  0  0  0  0  0
    6.8550   -5.9890   27.9900 N   0  0  0  0  0  2  0  0  0  0  0  0
    4.0110    1.8150   21.7420 O   0  0  0  0  0  0  0  0  0  0  0  0
   10.0400    1.0410   20.8570 O   0  0  0  0  0  1  0  0  0  0  0  0
  1 33  1  0
  2 13  1  0
  2 19  1  0
  2 33  1  0
  3  4  1  0
  3 26  1  0
  4  5  1  0
  5 31  1  0
  6  7  1  0
  6 11  1  0
  6 30  1  0
  7  8  1  0
  8  9  1  0
  9 10  1  0
  9 12  1  0
 10 11  1  0
 12 14  1  0
 12 17  1  0
 13 20  1  0
 14 15  1  0
 15 32  1  0
 16 17  1  0
 16 32  1  0
 18 19  1  0
 18 21  1  0
 18 29  1  0
 20 21  1  0
 21 27  1  0
 22 23  1  0
 22 29  1  0
 23 30  1  0
 23 34  1  0
 24 25  1  0
 24 30  1  0
 25 26  1  0
 25 31  1  0
 27 28  1  0
 28 29  1  0
M  END
$$$$
