7gfn_A_OFX_404
     RDKit          3D

 28 31  0  0  0  0  0  0  0  0999 V2000
   10.0530   -5.7840   25.2300 C   0  0  0  0  0  1  0  0  0  0  0  0
    8.0940   -4.9810   26.5150 C   0  0  0  0  0  1  0  0  0  0  0  0
   12.5120    0.7070   23.2960 C   0  0  0  0  0  2  0  0  0  0  0  0
   13.6110    1.4640   22.8990 C   0  0  0  0  0  2  0  0  0  0  0  0
    8.9670    0.4500   21.6380 C   0  0  0  0  0  3  0  0  0  0  0  0
    8.2980   -0.7390   20.9450 C   0  0  0  0  0  2  0  0  0  0  0  0
    5.9700    0.8250   18.7070 C   0  0  0  0  0  3  0  0  0  0  0  0
    4.8490    1.6020   18.4290 C   0  0  0  0  0  2  0  0  0  0  0  0
    4.0180    1.9690   19.4820 C   0  0  0  0  0  2  0  0  0  0  0  0
    4.3080    1.5840   20.7930 C   0  0  0  0  0  2  0  0  0  0  0  0
    5.4300    0.8160   21.0800 C   0  0  0  0  0  2  0  0  0  0  0  0
    6.2420    0.4420   20.0180 C   0  0  0  0  0  3  0  0  0  0  0  0
    9.2090   -3.4930   24.8800 C   0  0  0  0  0  3  0  0  0  0  0  0
   10.1410   -3.2850   23.8500 C   0  0  0  0  0  2  0  0  0  0  0  0
   10.2280   -2.0630   23.2090 C   0  0  0  0  0  2  0  0  0  0  0  0
    9.3710   -1.0250   23.5590 C   0  0  0  0  0  3  0  0  0  0  0  0
    8.4270   -1.2260   24.5540 C   0  0  0  0  0  2  0  0  0  0  0  0
    8.3500   -2.4390   25.2130 C   0  0  0  0  0  2  0  0  0  0  0  0
   10.0150    1.3660   23.6250 C   0  0  0  0  0  2  0  0  0  0  0  0
   11.4510    1.5770   23.2940 C   0  0  0  0  0  3  0  0  0  0  0  0
    9.1590   -4.6890   25.5640 N   0  0  0  0  0  0  0  0  0  0  0  0
    9.4440    0.2360   22.8980 N   0  0  0  0  0  0  0  0  0  0  0  0
   13.2670    2.7240   22.6700 N   0  0  0  0  0  2  0  0  0  0  0  0
   11.9240    2.7770   22.9110 N   0  0  0  0  0  2  0  0  0  0  0  0
    7.3730   -0.3110   19.9180 N   0  0  0  0  0  0  0  0  0  0  0  0
    7.7790   -0.3740   18.6240 N   0  0  0  0  0  2  0  0  0  0  0  0
    6.9430    0.3030   17.8860 N   0  0  0  0  0  2  0  0  0  0  0  0
    9.0660    1.5280   21.0750 O   0  0  0  0  0  1  0  0  0  0  0  0
  1 21  1  0
  2 21  1  0
  3  4  1  0
  3 20  1  0
  4 23  1  0
  5  6  1  0
  5 22  1  0
  5 28  1  0
  6 25  1  0
  7  8  1  0
  7 12  1  0
  7 27  1  0
  8  9  1  0
  9 10  1  0
 10 11  1  0
 11 12  1  0
 12 25  1  0
 13 14  1  0
 13 18  1  0
 13 21  1  0
 14 15  1  0
 15 16  1  0
 16 17  1  0
 16 22  1  0
 17 18  1  0
 19 20  1  0
 19 22  1  0
 20 24  1  0
 23 24  1  0
 25 26  1  0
 26 27  1  0
M  END
$$$$
