7gfo_A_OGF_404
     RDKit          3D

 30 33  0  0  0  0  0  0  0  0999 V2000
    7.0460   -6.0990   28.7600 C   0  0  0  0  0  1  0  0  0  0  0  0
    7.8510   -4.9460   26.7560 C   0  0  0  0  0  3  0  0  0  0  0  0
   13.2750   -0.9430   24.5770 C   0  0  0  0  0  2  0  0  0  0  0  0
   14.3550   -1.7760   24.3940 C   0  0  0  0  0  2  0  0  0  0  0  0
   13.4030   -0.9140   22.2700 C   0  0  0  0  0  2  0  0  0  0  0  0
    9.9000   -0.1080   21.3910 C   0  0  0  0  0  3  0  0  0  0  0  0
    8.8710   -1.0470   20.7630 C   0  0  0  0  0  2  0  0  0  0  0  0
    6.6230    0.6990   18.5640 C   0  0  0  0  0  3  0  0  0  0  0  0
    5.5100    1.4960   18.3140 C   0  0  0  0  0  2  0  0  0  0  0  0
    4.7420    1.9210   19.3930 C   0  0  0  0  0  2  0  0  0  0  0  0
    5.0760    1.5590   20.6960 C   0  0  0  0  0  2  0  0  0  0  0  0
    6.1820    0.7570   20.9540 C   0  0  0  0  0  2  0  0  0  0  0  0
    9.1610   -3.7050   25.0200 C   0  0  0  0  0  3  0  0  0  0  0  0
    6.9440    0.3450   19.8700 C   0  0  0  0  0  3  0  0  0  0  0  0
   10.1460   -3.8790   24.0520 C   0  0  0  0  0  2  0  0  0  0  0  0
   10.5110   -2.8290   23.2280 C   0  0  0  0  0  2  0  0  0  0  0  0
    9.8990   -1.5850   23.3640 C   0  0  0  0  0  3  0  0  0  0  0  0
    8.8850   -1.4210   24.3090 C   0  0  0  0  0  2  0  0  0  0  0  0
    8.5190   -2.4740   25.1290 C   0  0  0  0  0  2  0  0  0  0  0  0
   11.4500    0.3370   23.1990 C   0  0  0  0  0  2  0  0  0  0  0  0
   12.7190   -0.4560   23.3570 C   0  0  0  0  0  3  0  0  0  0  0  0
    8.0790   -5.7660   27.7950 N   0  0  0  0  0  2  0  0  0  0  0  0
    8.9510   -4.7370   25.9640 N   0  0  0  0  0  2  0  0  0  0  0  0
   10.3740   -0.4600   22.6220 N   0  0  0  0  0  0  0  0  0  0  0  0
    8.0930   -0.3760   19.7470 N   0  0  0  0  0  0  0  0  0  0  0  0
    8.4590   -0.4530   18.4440 N   0  0  0  0  0  2  0  0  0  0  0  0
    7.5790    0.1810   17.7200 N   0  0  0  0  0  2  0  0  0  0  0  0
    6.7480   -4.4430   26.5490 O   0  0  0  0  0  1  0  0  0  0  0  0
   10.2680    0.9060   20.8070 O   0  0  0  0  0  1  0  0  0  0  0  0
   14.6850   -1.9350   22.7090 S   0  0  0  0  0  0  0  0  0  0  0  0
  1 22  1  0
  2 22  1  0
  2 23  1  0
  2 28  1  0
  3  4  1  0
  3 21  1  0
  4 30  1  0
  5 21  1  0
  5 30  1  0
  6  7  1  0
  6 24  1  0
  6 29  1  0
  7 25  1  0
  8  9  1  0
  8 14  1  0
  8 27  1  0
  9 10  1  0
 10 11  1  0
 11 12  1  0
 12 14  1  0
 13 15  1  0
 13 19  1  0
 13 23  1  0
 14 25  1  0
 15 16  1  0
 16 17  1  0
 17 18  1  0
 17 24  1  0
 18 19  1  0
 20 21  1  0
 20 24  1  0
 25 26  1  0
 26 27  1  0
M  END
$$$$
