7gfp_A_OHC_404
     RDKit          3D

 23 24  0  0  0  0  0  0  0  0999 V2000
   11.4490    5.3350   23.2570 C   0  0  0  0  0  1  0  0  0  0  0  0
   11.6540    3.8690   23.0130 C   0  0  0  0  0  3  0  0  0  0  0  0
    7.2710   -0.0820   19.4500 C   0  0  0  0  0  3  0  0  0  0  0  0
    7.6210   -0.1070   18.1010 C   0  0  0  0  0  2  0  0  0  0  0  0
    5.8870    1.2740   17.5420 C   0  0  0  0  0  2  0  0  0  0  0  0
    5.4560    1.3520   18.8510 C   0  0  0  0  0  2  0  0  0  0  0  0
    6.1520    0.6750   19.8450 C   0  0  0  0  0  3  0  0  0  0  0  0
    5.7520    0.8160   21.2920 C   0  0  0  0  0  1  0  0  0  0  0  0
   11.5060    0.3800   23.1560 C   0  0  0  0  0  2  0  0  0  0  0  0
   13.1910    2.0750   23.9640 C   0  0  0  0  0  2  0  0  0  0  0  0
   12.8180    0.8410   23.1760 C   0  0  0  0  0  3  0  0  0  0  0  0
   13.7920    0.1260   22.4900 C   0  0  0  0  0  2  0  0  0  0  0  0
   13.4370   -1.0250   21.8150 C   0  0  0  0  0  3  0  0  0  0  0  0
   12.1290   -1.4600   21.7550 C   0  0  0  0  0  2  0  0  0  0  0  0
   11.1420   -0.7370   22.4120 C   0  0  0  0  0  3  0  0  0  0  0  0
    9.6810   -1.0490   22.1730 C   0  0  0  0  0  2  0  0  0  0  0  0
    9.1250   -0.2170   21.0330 C   0  0  0  0  0  3  0  0  0  0  0  0
   14.6750   -1.9650   21.0390 Cl  0  0  0  0  0  0  0  0  0  0  0  0
   12.8350    3.3680   23.3900 N   0  0  0  0  0  2  0  0  0  0  0  0
    8.0460   -0.7450   20.4260 N   0  0  0  0  0  2  0  0  0  0  0  0
    6.9540    0.5640   17.1550 N   0  0  0  0  0  2  0  0  0  0  0  0
   10.7810    3.1710   22.4950 O   0  0  0  0  0  1  0  0  0  0  0  0
    9.6230    0.8540   20.7070 O   0  0  0  0  0  1  0  0  0  0  0  0
  1  2  1  0
  2 19  1  0
  2 22  1  0
  3  4  1  0
  3  7  1  0
  3 20  1  0
  4 21  1  0
  5  6  1  0
  5 21  1  0
  6  7  1  0
  7  8  1  0
  9 11  1  0
  9 15  1  0
 10 11  1  0
 10 19  1  0
 11 12  1  0
 12 13  1  0
 13 14  1  0
 13 18  1  0
 14 15  1  0
 15 16  1  0
 16 17  1  0
 17 20  1  0
 17 23  1  0
M  END
$$$$
