7gfq_A_OI4_404
     RDKit          3D

 21 23  0  0  0  0  0  0  0  0999 V2000
    5.8520    1.0400   21.2920 C   0  0  0  0  0  1  0  0  0  0  0  0
    6.3030    0.7750   19.8780 C   0  0  0  0  0  3  0  0  0  0  0  0
   11.8300    0.1520   23.4450 C   0  0  0  0  0  3  0  0  0  0  0  0
   13.1830    0.4600   23.4520 C   0  0  0  0  0  2  0  0  0  0  0  0
   14.0230   -0.1300   22.5240 C   0  0  0  0  0  2  0  0  0  0  0  0
   13.5030   -1.0450   21.6330 C   0  0  0  0  0  3  0  0  0  0  0  0
   12.1610   -1.3650   21.6200 C   0  0  0  0  0  2  0  0  0  0  0  0
   11.2930   -0.7480   22.5190 C   0  0  0  0  0  3  0  0  0  0  0  0
    5.6310    1.3440   18.8020 C   0  0  0  0  0  2  0  0  0  0  0  0
    6.1050    1.1490   17.5210 C   0  0  0  0  0  2  0  0  0  0  0  0
    7.8460   -0.1320   18.2630 C   0  0  0  0  0  2  0  0  0  0  0  0
    7.4420    0.0000   19.5930 C   0  0  0  0  0  3  0  0  0  0  0  0
    9.3100   -0.1570   21.1850 C   0  0  0  0  0  3  0  0  0  0  0  0
    9.7920   -0.9290   22.4130 C   0  0  0  0  0  3  0  0  0  0  0  0
    9.0610   -0.4180   23.6690 C   0  0  0  0  0  2  0  0  0  0  0  0
    9.6600    0.8880   24.1230 C   0  0  0  0  0  2  0  0  0  0  0  0
   14.5750   -1.8700   20.5400 Cl  0  0  0  0  0  0  0  0  0  0  0  0
    7.1970    0.4280   17.2380 N   0  0  0  0  0  2  0  0  0  0  0  0
    8.1500   -0.6030   20.6590 N   0  0  0  0  0  2  0  0  0  0  0  0
    9.9300    0.8000   20.7350 O   0  0  0  0  0  1  0  0  0  0  0  0
   11.0710    0.7690   24.4120 O   0  0  0  0  0  0  0  0  0  0  0  0
  1  2  1  0
  2  9  1  0
  2 12  1  0
  3  4  1  0
  3  8  1  0
  3 21  1  0
  4  5  1  0
  5  6  1  0
  6  7  1  0
  6 17  1  0
  7  8  1  0
  8 14  1  0
  9 10  1  0
 10 18  1  0
 11 12  1  0
 11 18  1  0
 12 19  1  0
 13 14  1  0
 13 19  1  0
 13 20  1  0
 14 15  1  0
 15 16  1  0
 16 21  1  0
M  END
$$$$
