7gfx_A_OKW_404
     RDKit          3D

 20 22  0  0  0  0  0  0  0  0999 V2000
   13.3380   -1.1000   21.7060 C   0  0  0  0  0  3  0  0  0  0  0  0
   13.7960   -0.2060   22.6500 C   0  0  0  0  0  2  0  0  0  0  0  0
    5.3950    1.3310   18.8510 C   0  0  0  0  0  3  0  0  0  0  0  0
    4.2660    2.1260   19.4550 C   0  0  0  0  0  2  0  0  0  0  0  0
    4.2770    1.7260   20.9340 C   0  0  0  0  0  2  0  0  0  0  0  0
    5.6240    1.0550   21.2160 C   0  0  0  0  0  2  0  0  0  0  0  0
    6.1390    0.7050   19.8470 C   0  0  0  0  0  3  0  0  0  0  0  0
   11.9970   -1.4070   21.5860 C   0  0  0  0  0  2  0  0  0  0  0  0
   12.8830    0.3520   23.5320 C   0  0  0  0  0  2  0  0  0  0  0  0
   11.5380    0.0310   23.4410 C   0  0  0  0  0  2  0  0  0  0  0  0
   11.0770   -0.8290   22.4540 C   0  0  0  0  0  3  0  0  0  0  0  0
    9.5980   -1.0640   22.2590 C   0  0  0  0  0  2  0  0  0  0  0  0
    9.0730   -0.2410   21.1000 C   0  0  0  0  0  3  0  0  0  0  0  0
    7.2460   -0.0760   19.4880 C   0  0  0  0  0  3  0  0  0  0  0  0
    7.5700   -0.1770   18.1390 C   0  0  0  0  0  2  0  0  0  0  0  0
    5.8060    1.1520   17.5480 C   0  0  0  0  0  2  0  0  0  0  0  0
   14.4880   -1.9330   20.6950 Cl  0  0  0  0  0  0  0  0  0  0  0  0
    7.9650   -0.7290   20.5130 N   0  0  0  0  0  2  0  0  0  0  0  0
    6.8690    0.4290   17.1780 N   0  0  0  0  0  2  0  0  0  0  0  0
    9.6210    0.7960   20.7450 O   0  0  0  0  0  1  0  0  0  0  0  0
  1  2  1  0
  1  8  1  0
  1 17  1  0
  2  9  1  0
  3  4  1  0
  3  7  1  0
  3 16  1  0
  4  5  1  0
  5  6  1  0
  6  7  1  0
  7 14  1  0
  8 11  1  0
  9 10  1  0
 10 11  1  0
 11 12  1  0
 12 13  1  0
 13 18  1  0
 13 20  1  0
 14 15  1  0
 14 18  1  0
 15 19  1  0
 16 19  1  0
M  END
$$$$
