7gg6_A_OQL_404
     RDKit          3D

 24 27  0  0  0  0  0  0  0  0999 V2000
   13.1300   -0.9820   21.9250 C   0  0  0  0  0  3  0  0  0  0  0  0
   13.4680    0.0120   22.8190 C   0  0  0  0  0  2  0  0  0  0  0  0
    5.6790    1.2150   17.7500 C   0  0  0  0  0  2  0  0  0  0  0  0
    5.2260    1.2890   19.0900 C   0  0  0  0  0  3  0  0  0  0  0  0
    4.1090    2.0620   19.4920 C   0  0  0  0  0  2  0  0  0  0  0  0
    3.7240    2.0950   20.8000 C   0  0  0  0  0  2  0  0  0  0  0  0
    4.4200    1.3790   21.7610 C   0  0  0  0  0  2  0  0  0  0  0  0
    5.4990    0.6150   21.4150 C   0  0  0  0  0  2  0  0  0  0  0  0
    5.9370    0.5400   20.0680 C   0  0  0  0  0  3  0  0  0  0  0  0
   10.8390   -0.9100   22.6260 C   0  0  0  0  0  3  0  0  0  0  0  0
   11.8340   -1.4380   21.8070 C   0  0  0  0  0  2  0  0  0  0  0  0
   12.4950    0.5200   23.6620 C   0  0  0  0  0  2  0  0  0  0  0  0
   11.1820    0.0520   23.5850 C   0  0  0  0  0  3  0  0  0  0  0  0
    9.2050   -0.4430   24.8800 C   0  0  0  0  0  2  0  0  0  0  0  0
    8.4640   -1.0050   23.6740 C   0  0  0  0  0  2  0  0  0  0  0  0
    9.3800   -1.2770   22.4330 C   0  0  0  0  0  3  0  0  0  0  0  0
    8.8980   -0.4120   21.2670 C   0  0  0  0  0  3  0  0  0  0  0  0
    7.0490   -0.2440   19.6370 C   0  0  0  0  0  3  0  0  0  0  0  0
    7.3600   -0.2290   18.2780 C   0  0  0  0  0  2  0  0  0  0  0  0
   14.3810   -1.7400   20.9760 Cl  0  0  0  0  0  0  0  0  0  0  0  0
   10.2430    0.4970   24.4710 N   0  0  0  0  0  2  0  0  0  0  0  0
    7.8190   -0.8980   20.6150 N   0  0  0  0  0  2  0  0  0  0  0  0
    6.7130    0.4840   17.3500 N   0  0  0  0  0  2  0  0  0  0  0  0
    9.4290    0.6600   20.9850 O   0  0  0  0  0  1  0  0  0  0  0  0
  1  2  1  0
  1 11  1  0
  1 20  1  0
  2 12  1  0
  3  4  1  0
  3 23  1  0
  4  5  1  0
  4  9  1  0
  5  6  1  0
  6  7  1  0
  7  8  1  0
  8  9  1  0
  9 18  1  0
 10 11  1  0
 10 13  1  0
 10 16  1  0
 12 13  1  0
 13 21  1  0
 14 15  1  0
 14 21  1  0
 15 16  1  0
 16 17  1  0
 17 22  1  0
 17 24  1  0
 18 19  1  0
 18 22  1  0
 19 23  1  0
M  END
$$$$
