7gg7_A_OQX_404
     RDKit          3D

 29 32  0  0  0  0  0  0  0  0999 V2000
    9.5950   -5.4710   25.6940 C   0  0  0  0  0  1  0  0  0  0  0  0
    8.9000   -3.2290   25.1940 C   0  0  0  0  0  3  0  0  0  0  0  0
   13.4790    0.8940   22.9470 C   0  0  0  0  0  2  0  0  0  0  0  0
   13.8470    2.0920   22.3630 C   0  0  0  0  0  2  0  0  0  0  0  0
   12.9180    3.1060   22.2940 C   0  0  0  0  0  3  0  0  0  0  0  0
   11.6220    2.9370   22.7460 C   0  0  0  0  0  2  0  0  0  0  0  0
    8.8910    0.4520   21.6260 C   0  0  0  0  0  3  0  0  0  0  0  0
    8.1500   -0.7050   20.9550 C   0  0  0  0  0  2  0  0  0  0  0  0
    5.7080    0.8640   18.8360 C   0  0  0  0  0  3  0  0  0  0  0  0
    4.5940    1.6720   18.6320 C   0  0  0  0  0  2  0  0  0  0  0  0
    3.8790    2.1080   19.7400 C   0  0  0  0  0  2  0  0  0  0  0  0
    4.2700    1.7540   21.0310 C   0  0  0  0  0  2  0  0  0  0  0  0
    8.0940   -2.1410   25.4980 C   0  0  0  0  0  2  0  0  0  0  0  0
    5.3900    0.9620   21.2460 C   0  0  0  0  0  2  0  0  0  0  0  0
    6.0920    0.5270   20.1300 C   0  0  0  0  0  3  0  0  0  0  0  0
    8.1790   -0.9900   24.7340 C   0  0  0  0  0  2  0  0  0  0  0  0
    9.0820   -0.9140   23.6750 C   0  0  0  0  0  3  0  0  0  0  0  0
    9.8840   -2.0100   23.3770 C   0  0  0  0  0  2  0  0  0  0  0  0
    9.7890   -3.1660   24.1270 C   0  0  0  0  0  2  0  0  0  0  0  0
    9.7990    1.4500   23.6560 C   0  0  0  0  0  2  0  0  0  0  0  0
   11.2420    1.7180   23.3010 C   0  0  0  0  0  3  0  0  0  0  0  0
   12.1890    0.7120   23.4180 C   0  0  0  0  0  2  0  0  0  0  0  0
   13.4020    4.6570   21.6690 Cl  0  0  0  0  0  0  0  0  0  0  0  0
    9.2280    0.3010   22.9390 N   0  0  0  0  0  0  0  0  0  0  0  0
    7.2190   -0.2160   19.9600 N   0  0  0  0  0  0  0  0  0  0  0  0
    7.4990   -0.3440   18.6380 N   0  0  0  0  0  2  0  0  0  0  0  0
    6.6010    0.3040   17.9520 N   0  0  0  0  0  2  0  0  0  0  0  0
    8.7870   -4.3340   26.0000 O   0  0  0  0  0  0  0  0  0  0  0  0
    9.1440    1.4690   21.0010 O   0  0  0  0  0  1  0  0  0  0  0  0
  1 28  1  0
  2 13  1  0
  2 19  1  0
  2 28  1  0
  3  4  1  0
  3 22  1  0
  4  5  1  0
  5  6  1  0
  5 23  1  0
  6 21  1  0
  7  8  1  0
  7 24  1  0
  7 29  1  0
  8 25  1  0
  9 10  1  0
  9 15  1  0
  9 27  1  0
 10 11  1  0
 11 12  1  0
 12 14  1  0
 13 16  1  0
 14 15  1  0
 15 25  1  0
 16 17  1  0
 17 18  1  0
 17 24  1  0
 18 19  1  0
 20 21  1  0
 20 24  1  0
 21 22  1  0
 25 26  1  0
 26 27  1  0
M  END
$$$$
