7ggb_A_OT6_404
     RDKit          3D

 25 26  0  0  0  0  0  0  0  0999 V2000
    5.0260    0.9860   21.5610 C   0  0  0  0  0  1  0  0  0  0  0  0
    5.4160    0.7540   20.1250 C   0  0  0  0  0  3  0  0  0  0  0  0
   11.2600    0.4260   24.4650 C   0  0  0  0  0  3  0  0  0  0  0  0
   10.4640    0.4530   25.5940 C   0  0  0  0  0  2  0  0  0  0  0  0
    9.2460   -0.2200   25.5700 C   0  0  0  0  0  3  0  0  0  0  0  0
    7.1840   -0.9610   26.8230 C   0  0  0  0  0  2  0  0  0  0  0  0
    5.9370   -0.0580   26.7800 C   0  0  0  0  0  0  0  0  0  0  0  0
    4.6440   -0.8770   26.7270 C   0  0  0  0  0  1  0  0  0  0  0  0
    5.9340    0.8820   27.9910 C   0  0  0  0  0  1  0  0  0  0  0  0
    6.0060    0.7620   25.5650 C   0  0  0  0  0  2  0  0  0  0  0  0
    8.8360   -0.8630   24.4050 C   0  0  0  0  0  2  0  0  0  0  0  0
    4.8110    1.4760   19.1030 C   0  0  0  0  0  2  0  0  0  0  0  0
    5.2970    1.3710   17.8140 C   0  0  0  0  0  2  0  0  0  0  0  0
    6.8700   -0.1640   18.4420 C   0  0  0  0  0  2  0  0  0  0  0  0
    6.4580   -0.1100   19.7710 C   0  0  0  0  0  3  0  0  0  0  0  0
    8.3700   -0.4540   21.1700 C   0  0  0  0  0  3  0  0  0  0  0  0
    9.1320   -1.4790   21.9860 C   0  0  0  0  0  2  0  0  0  0  0  0
    9.6350   -0.8600   23.2690 C   0  0  0  0  0  3  0  0  0  0  0  0
   10.8700   -0.2240   23.3110 C   0  0  0  0  0  2  0  0  0  0  0  0
   12.7920    1.2530   24.4930 Cl  0  0  0  0  0  0  0  0  0  0  0  0
    6.3300    0.5900   17.4770 N   0  0  0  0  0  2  0  0  0  0  0  0
    7.1440   -0.8440   20.7650 N   0  0  0  0  0  2  0  0  0  0  0  0
    8.4480   -0.2620   26.7020 N   0  0  0  0  0  2  0  0  0  0  0  0
    6.1070    1.3790   24.6160 N   0  0  0  0  0  1  0  0  0  0  0  0
    8.8550    0.6370   20.8830 O   0  0  0  0  0  1  0  0  0  0  0  0
  1  2  1  0
  2 12  1  0
  2 15  1  0
  3  4  1  0
  3 19  1  0
  3 20  1  0
  4  5  1  0
  5 11  1  0
  5 23  1  0
  6  7  1  0
  6 23  1  0
  7  8  1  0
  7  9  1  0
  7 10  1  0
 10 24  1  0
 11 18  1  0
 12 13  1  0
 13 21  1  0
 14 15  1  0
 14 21  1  0
 15 22  1  0
 16 17  1  0
 16 22  1  0
 16 25  1  0
 17 18  1  0
 18 19  1  0
M  END
$$$$
