7ggd_A_OUF_404
     RDKit          3D

 29 31  0  0  0  0  0  0  0  0999 V2000
   12.6860   -1.5690   22.0420 C   0  0  0  0  0  1  0  0  0  0  0  0
   12.2840   -0.3100   22.7550 C   0  0  0  0  0  3  0  0  0  0  0  0
    9.3840   -5.7430   27.3340 C   0  0  0  0  0  2  0  0  0  0  0  0
    8.4430   -1.0860   28.1770 C   0  0  0  0  0  3  0  0  0  0  0  0
    8.9280    0.6310   29.8380 C   0  0  0  0  0  3  0  0  0  0  0  0
    9.6890    0.3550   30.9180 C   0  0  0  0  0  2  0  0  0  0  0  0
   10.1940    0.4360   33.3080 C   0  0  0  0  0  1  0  0  0  0  0  0
    8.3960    1.8280   32.3730 C   0  0  0  0  0  3  0  0  0  0  0  0
    7.5850    2.1920   31.1980 C   0  0  0  0  0  3  0  0  0  0  0  0
    6.5660    3.1360   31.3290 C   0  0  0  0  0  2  0  0  0  0  0  0
    5.7850    3.4690   30.2340 C   0  0  0  0  0  2  0  0  0  0  0  0
    6.0030    2.8670   29.0090 C   0  0  0  0  0  2  0  0  0  0  0  0
   13.4350    0.3470   23.4460 C   0  0  0  0  0  1  0  0  0  0  0  0
    7.0170    1.9380   28.8550 C   0  0  0  0  0  2  0  0  0  0  0  0
    7.8220    1.5960   29.9440 C   0  0  0  0  0  3  0  0  0  0  0  0
   10.4690    0.5040   24.1810 C   0  0  0  0  0  2  0  0  0  0  0  0
    9.3200   -0.0340   24.9980 C   0  0  0  0  0  2  0  0  0  0  0  0
    9.7960   -0.9780   26.0930 C   0  0  0  0  0  2  0  0  0  0  0  0
    7.9440   -2.6170   26.3390 C   0  0  0  0  0  2  0  0  0  0  0  0
    8.6930   -3.9010   26.3770 C   0  0  0  0  0  3  0  0  0  0  0  0
    9.4750   -4.5370   25.4920 C   0  0  0  0  0  2  0  0  0  0  0  0
    9.9210   -5.7330   26.1200 C   0  0  0  0  0  2  0  0  0  0  0  0
    8.7140   -1.5320   26.9170 N   0  0  0  0  0  0  0  0  0  0  0  0
    9.2050   -0.0110   28.6420 N   0  0  0  0  0  2  0  0  0  0  0  0
    9.4340    0.8880   32.1450 N   0  0  0  0  0  0  0  0  0  0  0  0
   11.1930   -0.5950   23.6230 O   0  0  0  0  0  0  0  0  0  0  0  0
    8.6170   -4.6200   27.5300 O   0  0  0  0  0  0  0  0  0  0  0  0
    7.6160   -1.6380   28.8920 O   0  0  0  0  0  1  0  0  0  0  0  0
    8.1960    2.2520   33.5020 O   0  0  0  0  0  1  0  0  0  0  0  0
  1  2  1  0
  2 13  1  0
  2 26  1  0
  3 22  1  0
  3 27  1  0
  4 23  1  0
  4 24  1  0
  4 28  1  0
  5  6  1  0
  5 15  1  0
  5 24  1  0
  6 25  1  0
  7 25  1  0
  8  9  1  0
  8 25  1  0
  8 29  1  0
  9 10  1  0
  9 15  1  0
 10 11  1  0
 11 12  1  0
 12 14  1  0
 14 15  1  0
 16 17  1  0
 16 26  1  0
 17 18  1  0
 18 23  1  0
 19 20  1  0
 19 23  1  0
 20 21  1  0
 20 27  1  0
 21 22  1  0
M  END
$$$$
