7gge_A_OV4_404
     RDKit          3D

 29 32  0  0  0  0  0  0  0  0999 V2000
    7.9900   -4.8490   26.5910 C   0  0  0  0  0  1  0  0  0  0  0  0
   10.0080   -5.5440   25.4120 C   0  0  0  0  0  1  0  0  0  0  0  0
   12.2270    1.1140   23.8190 C   0  0  0  0  0  2  0  0  0  0  0  0
   13.5210    1.4040   23.4150 C   0  0  0  0  0  2  0  0  0  0  0  0
   13.7720    2.5260   22.6460 C   0  0  0  0  0  2  0  0  0  0  0  0
   12.7310    3.3640   22.2960 C   0  0  0  0  0  2  0  0  0  0  0  0
   11.4370    3.0700   22.6930 C   0  0  0  0  0  2  0  0  0  0  0  0
    8.8230    0.6310   21.7560 C   0  0  0  0  0  3  0  0  0  0  0  0
    8.1860   -0.5550   21.0340 C   0  0  0  0  0  2  0  0  0  0  0  0
    5.8300    0.9340   18.7700 C   0  0  0  0  0  3  0  0  0  0  0  0
    4.6880    1.6830   18.4970 C   0  0  0  0  0  2  0  0  0  0  0  0
    3.8620    2.0400   19.5550 C   0  0  0  0  0  2  0  0  0  0  0  0
    9.0160   -3.3550   24.9110 C   0  0  0  0  0  3  0  0  0  0  0  0
    4.1660    1.6640   20.8600 C   0  0  0  0  0  2  0  0  0  0  0  0
    5.3010    0.9140   21.1430 C   0  0  0  0  0  2  0  0  0  0  0  0
    6.1210    0.5660   20.0790 C   0  0  0  0  0  3  0  0  0  0  0  0
    8.2370   -2.2820   25.3610 C   0  0  0  0  0  2  0  0  0  0  0  0
    8.3230   -1.0420   24.7550 C   0  0  0  0  0  2  0  0  0  0  0  0
    9.1970   -0.8380   23.6960 C   0  0  0  0  0  3  0  0  0  0  0  0
    9.9950   -1.8860   23.2550 C   0  0  0  0  0  2  0  0  0  0  0  0
    9.8940   -3.1320   23.8430 C   0  0  0  0  0  2  0  0  0  0  0  0
    9.7480    1.5660   23.8070 C   0  0  0  0  0  2  0  0  0  0  0  0
   11.1670    1.9350   23.4500 C   0  0  0  0  0  3  0  0  0  0  0  0
    8.9110   -4.5990   25.4900 N   0  0  0  0  0  0  0  0  0  0  0  0
    9.2390    0.4240   23.0380 N   0  0  0  0  0  0  0  0  0  0  0  0
    7.3030   -0.1020   19.9830 N   0  0  0  0  0  0  0  0  0  0  0  0
    7.6990   -0.1650   18.6860 N   0  0  0  0  0  2  0  0  0  0  0  0
    6.8280    0.4630   17.9480 N   0  0  0  0  0  2  0  0  0  0  0  0
    8.9200    1.7150   21.2030 O   0  0  0  0  0  1  0  0  0  0  0  0
  1 24  1  0
  2 24  1  0
  3  4  1  0
  3 23  1  0
  4  5  1  0
  5  6  1  0
  6  7  1  0
  7 23  1  0
  8  9  1  0
  8 25  1  0
  8 29  1  0
  9 26  1  0
 10 11  1  0
 10 16  1  0
 10 28  1  0
 11 12  1  0
 12 14  1  0
 13 17  1  0
 13 21  1  0
 13 24  1  0
 14 15  1  0
 15 16  1  0
 16 26  1  0
 17 18  1  0
 18 19  1  0
 19 20  1  0
 19 25  1  0
 20 21  1  0
 22 23  1  0
 22 25  1  0
 26 27  1  0
 27 28  1  0
M  END
$$$$
