7ggf_A_OVF_404
     RDKit          3D

 30 33  0  0  0  0  0  0  0  0999 V2000
    8.0620   -4.8640   26.6040 C   0  0  0  0  0  1  0  0  0  0  0  0
    9.6580   -5.7120   24.9540 C   0  0  0  0  0  1  0  0  0  0  0  0
   12.0860    0.9110   23.7990 C   0  0  0  0  0  2  0  0  0  0  0  0
   13.4090    1.0760   23.4240 C   0  0  0  0  0  2  0  0  0  0  0  0
   13.8000    2.2070   22.7310 C   0  0  0  0  0  2  0  0  0  0  0  0
   12.8570    3.1710   22.4500 C   0  0  0  0  0  3  0  0  0  0  0  0
   11.5270    3.0110   22.7990 C   0  0  0  0  0  2  0  0  0  0  0  0
    8.7210    0.6010   21.6930 C   0  0  0  0  0  3  0  0  0  0  0  0
    8.0050   -0.5740   21.0210 C   0  0  0  0  0  2  0  0  0  0  0  0
    5.7000    0.9220   18.7010 C   0  0  0  0  0  3  0  0  0  0  0  0
    4.5740    1.6830   18.3970 C   0  0  0  0  0  2  0  0  0  0  0  0
    3.7340    2.0650   19.4360 C   0  0  0  0  0  2  0  0  0  0  0  0
    9.0760   -3.3220   24.9570 C   0  0  0  0  0  3  0  0  0  0  0  0
    4.0120    1.7030   20.7560 C   0  0  0  0  0  2  0  0  0  0  0  0
    5.1410    0.9580   21.0690 C   0  0  0  0  0  2  0  0  0  0  0  0
    5.9720    0.5820   20.0240 C   0  0  0  0  0  3  0  0  0  0  0  0
    8.1630   -2.3130   25.3000 C   0  0  0  0  0  2  0  0  0  0  0  0
    8.1870   -1.0880   24.6560 C   0  0  0  0  0  2  0  0  0  0  0  0
    9.1250   -0.8370   23.6580 C   0  0  0  0  0  3  0  0  0  0  0  0
   10.0430   -1.8190   23.3210 C   0  0  0  0  0  2  0  0  0  0  0  0
   10.0180   -3.0460   23.9570 C   0  0  0  0  0  2  0  0  0  0  0  0
    9.6640    1.5800   23.7190 C   0  0  0  0  0  2  0  0  0  0  0  0
   11.1260    1.8560   23.4650 C   0  0  0  0  0  3  0  0  0  0  0  0
   13.3600    4.6450   21.6660 Cl  0  0  0  0  0  0  0  0  0  0  0  0
    9.0470   -4.5530   25.5790 N   0  0  0  0  0  0  0  0  0  0  0  0
    9.1440    0.4190   22.9780 N   0  0  0  0  0  0  0  0  0  0  0  0
    7.1350   -0.1240   19.9530 N   0  0  0  0  0  0  0  0  0  0  0  0
    7.5290   -0.2460   18.6600 N   0  0  0  0  0  2  0  0  0  0  0  0
    6.6830    0.3880   17.8990 N   0  0  0  0  0  2  0  0  0  0  0  0
    8.8870    1.6530   21.0990 O   0  0  0  0  0  1  0  0  0  0  0  0
  1 25  1  0
  2 25  1  0
  3  4  1  0
  3 23  1  0
  4  5  1  0
  5  6  1  0
  6  7  1  0
  6 24  1  0
  7 23  1  0
  8  9  1  0
  8 26  1  0
  8 30  1  0
  9 27  1  0
 10 11  1  0
 10 16  1  0
 10 29  1  0
 11 12  1  0
 12 14  1  0
 13 17  1  0
 13 21  1  0
 13 25  1  0
 14 15  1  0
 15 16  1  0
 16 27  1  0
 17 18  1  0
 18 19  1  0
 19 20  1  0
 19 26  1  0
 20 21  1  0
 22 23  1  0
 22 26  1  0
 27 28  1  0
 28 29  1  0
M  END
$$$$
