7ggm_A_OZX_404
     RDKit          3D

 21 23  0  0  0  0  0  0  0  0999 V2000
   12.8150   -0.8720   22.4600 C   0  0  0  0  0  3  0  0  0  0  0  0
   13.1500    0.1130   23.3750 C   0  0  0  0  0  2  0  0  0  0  0  0
    5.0040    1.2940   19.1000 C   0  0  0  0  0  3  0  0  0  0  0  0
    3.8620    2.0430   19.4730 C   0  0  0  0  0  2  0  0  0  0  0  0
    3.4720    2.1070   20.7780 C   0  0  0  0  0  2  0  0  0  0  0  0
    4.1970    1.4600   21.7660 C   0  0  0  0  0  2  0  0  0  0  0  0
    5.3040    0.7260   21.4500 C   0  0  0  0  0  2  0  0  0  0  0  0
    5.7390    0.6080   20.1060 C   0  0  0  0  0  3  0  0  0  0  0  0
   12.1020    0.6680   24.0950 C   0  0  0  0  0  2  0  0  0  0  0  0
   10.8050    0.2330   23.8720 C   0  0  0  0  0  2  0  0  0  0  0  0
   10.5850   -0.7370   22.9010 C   0  0  0  0  0  3  0  0  0  0  0  0
    9.1990   -1.1700   22.4950 C   0  0  0  0  0  2  0  0  0  0  0  0
    8.7310   -0.3340   21.3210 C   0  0  0  0  0  3  0  0  0  0  0  0
    6.8790   -0.1510   19.7050 C   0  0  0  0  0  3  0  0  0  0  0  0
    7.2080   -0.1520   18.3520 C   0  0  0  0  0  2  0  0  0  0  0  0
    5.4650    1.1930   17.7670 C   0  0  0  0  0  2  0  0  0  0  0  0
   14.0810   -1.7210   21.6230 Cl  0  0  0  0  0  0  0  0  0  0  0  0
    7.6290   -0.7970   20.7020 N   0  0  0  0  0  2  0  0  0  0  0  0
    6.5360    0.5030   17.3990 N   0  0  0  0  0  2  0  0  0  0  0  0
   11.5850   -1.2920   22.1970 N   0  0  0  0  0  2  0  0  0  0  0  0
    9.3040    0.7030   20.9950 O   0  0  0  0  0  1  0  0  0  0  0  0
  1  2  1  0
  1 17  1  0
  1 20  1  0
  2  9  1  0
  3  4  1  0
  3  8  1  0
  3 16  1  0
  4  5  1  0
  5  6  1  0
  6  7  1  0
  7  8  1  0
  8 14  1  0
  9 10  1  0
 10 11  1  0
 11 12  1  0
 11 20  1  0
 12 13  1  0
 13 18  1  0
 13 21  1  0
 14 15  1  0
 14 18  1  0
 15 19  1  0
 16 19  1  0
M  END
$$$$
