7ggr_A_P6O_404
     RDKit          3D

 26 29  0  0  0  0  0  0  0  0999 V2000
    9.4680   -0.9310   22.4790 C   0  0  0  0  0  0  0  0  0  0  0  0
    8.5910   -0.4700   23.6570 C   0  0  0  0  0  2  0  0  0  0  0  0
    7.3010   -0.3700   19.3720 C   0  0  0  0  0  3  0  0  0  0  0  0
    7.5520   -0.4850   18.0090 C   0  0  0  0  0  2  0  0  0  0  0  0
    6.1660    1.2190   17.4220 C   0  0  0  0  0  2  0  0  0  0  0  0
    5.7360    1.4140   18.7540 C   0  0  0  0  0  3  0  0  0  0  0  0
    4.7100    2.3240   19.1070 C   0  0  0  0  0  2  0  0  0  0  0  0
    4.2730    2.4130   20.3960 C   0  0  0  0  0  2  0  0  0  0  0  0
    4.8320    1.6220   21.3870 C   0  0  0  0  0  2  0  0  0  0  0  0
    5.8340    0.7400   21.0940 C   0  0  0  0  0  2  0  0  0  0  0  0
    6.3230    0.6030   19.7670 C   0  0  0  0  0  3  0  0  0  0  0  0
    8.8010    0.9960   23.9360 C   0  0  0  0  0  3  0  0  0  0  0  0
   11.1430    0.7230   23.3270 C   0  0  0  0  0  3  0  0  0  0  0  0
   12.4240    1.2730   23.3230 C   0  0  0  0  0  2  0  0  0  0  0  0
   13.4720    0.5800   22.7450 C   0  0  0  0  0  2  0  0  0  0  0  0
   13.2420   -0.6710   22.2140 C   0  0  0  0  0  3  0  0  0  0  0  0
   11.9900   -1.2540   22.2340 C   0  0  0  0  0  2  0  0  0  0  0  0
   10.9170   -0.5350   22.7540 C   0  0  0  0  0  3  0  0  0  0  0  0
    8.9870   -0.1460   21.2060 C   0  0  0  0  0  3  0  0  0  0  0  0
   14.5580   -1.5300   21.4660 Cl  0  0  0  0  0  0  0  0  0  0  0  0
   10.0660    1.4560   23.8350 N   0  0  0  0  0  2  0  0  0  0  0  0
    8.2800   -0.8180   20.2790 N   0  0  0  0  0  2  0  0  0  0  0  0
    7.0380    0.2960   17.0520 N   0  0  0  0  0  2  0  0  0  0  0  0
    9.3280   -2.3430   22.3630 O   0  0  0  0  0  1  0  0  0  0  0  0
    7.8560    1.7530   24.1590 O   0  0  0  0  0  1  0  0  0  0  0  0
    9.2930    1.0270   21.0370 O   0  0  0  0  0  1  0  0  0  0  0  0
  1  2  1  0
  1 18  1  0
  1 19  1  0
  1 24  1  0
  2 12  1  0
  3  4  1  0
  3 11  1  0
  3 22  1  0
  4 23  1  0
  5  6  1  0
  5 23  1  0
  6  7  1  0
  6 11  1  0
  7  8  1  0
  8  9  1  0
  9 10  1  0
 10 11  1  0
 12 21  1  0
 12 25  1  0
 13 14  1  0
 13 18  1  0
 13 21  1  0
 14 15  1  0
 15 16  1  0
 16 17  1  0
 16 20  1  0
 17 18  1  0
 19 22  1  0
 19 26  1  0
M  END
$$$$
