7ggu_A_PJ6_404
     RDKit          3D

 26 29  0  0  0  0  0  0  0  0999 V2000
    9.8640   -2.6200   23.1220 C   0  0  0  0  0  1  0  0  0  0  0  0
    9.5720   -0.2440   22.5950 C   0  0  0  0  0  0  0  0  0  0  0  0
    8.9910    0.4410   21.3240 C   0  0  0  0  0  3  0  0  0  0  0  0
    7.2430    0.1110   19.6240 C   0  0  0  0  0  3  0  0  0  0  0  0
    7.4900    0.0950   18.2560 C   0  0  0  0  0  2  0  0  0  0  0  0
    5.5370    1.1590   17.7400 C   0  0  0  0  0  2  0  0  0  0  0  0
    5.1430    1.2460   19.0950 C   0  0  0  0  0  3  0  0  0  0  0  0
    3.9540    1.8900   19.5190 C   0  0  0  0  0  2  0  0  0  0  0  0
    3.6440    1.9720   20.8460 C   0  0  0  0  0  2  0  0  0  0  0  0
    4.4880    1.4280   21.8040 C   0  0  0  0  0  2  0  0  0  0  0  0
    5.6460    0.8030   21.4380 C   0  0  0  0  0  2  0  0  0  0  0  0
    6.0170    0.6950   20.0720 C   0  0  0  0  0  3  0  0  0  0  0  0
    8.8570    0.3600   23.8150 C   0  0  0  0  0  2  0  0  0  0  0  0
    9.5940    1.5740   24.3370 C   0  0  0  0  0  2  0  0  0  0  0  0
   11.6690    0.6830   23.6530 C   0  0  0  0  0  3  0  0  0  0  0  0
   13.0370    0.8850   23.6960 C   0  0  0  0  0  2  0  0  0  0  0  0
   13.8420    0.2790   22.7500 C   0  0  0  0  0  2  0  0  0  0  0  0
   13.2640   -0.5060   21.7770 C   0  0  0  0  0  3  0  0  0  0  0  0
   11.8950   -0.6630   21.6840 C   0  0  0  0  0  2  0  0  0  0  0  0
   11.0750   -0.0800   22.6460 C   0  0  0  0  0  3  0  0  0  0  0  0
   14.2890   -1.4210   20.7070 Cl  0  0  0  0  0  0  0  0  0  0  0  0
    8.1580   -0.3290   20.5960 N   0  0  0  0  0  2  0  0  0  0  0  0
    6.6700    0.6030   17.3270 N   0  0  0  0  0  2  0  0  0  0  0  0
    9.0740   -1.5900   22.5230 O   0  0  0  0  0  0  0  0  0  0  0  0
   10.9510    1.2520   24.6760 O   0  0  0  0  0  0  0  0  0  0  0  0
    9.2410    1.6020   21.0260 O   0  0  0  0  0  1  0  0  0  0  0  0
  1 24  1  0
  2  3  1  0
  2 13  1  0
  2 20  1  0
  2 24  1  0
  3 22  1  0
  3 26  1  0
  4  5  1  0
  4 12  1  0
  4 22  1  0
  5 23  1  0
  6  7  1  0
  6 23  1  0
  7  8  1  0
  7 12  1  0
  8  9  1  0
  9 10  1  0
 10 11  1  0
 11 12  1  0
 13 14  1  0
 14 25  1  0
 15 16  1  0
 15 20  1  0
 15 25  1  0
 16 17  1  0
 17 18  1  0
 18 19  1  0
 18 21  1  0
 19 20  1  0
M  END
$$$$
