7ggv_A_PJX_404
     RDKit          3D

 25 28  0  0  0  0  0  0  0  0999 V2000
    9.5600    1.3060   25.6700 C   0  0  0  0  0  1  0  0  0  0  0  0
    7.9640   -0.0300   24.3500 C   0  0  0  0  0  2  0  0  0  0  0  0
    3.2170    2.0950   20.8440 C   0  0  0  0  0  2  0  0  0  0  0  0
    3.8750    1.3240   21.7890 C   0  0  0  0  0  2  0  0  0  0  0  0
    4.9630    0.5750   21.4420 C   0  0  0  0  0  2  0  0  0  0  0  0
    5.4410    0.5600   20.1060 C   0  0  0  0  0  3  0  0  0  0  0  0
   10.2000   -0.9780   22.7650 C   0  0  0  0  0  3  0  0  0  0  0  0
   11.2730   -1.4400   22.0100 C   0  0  0  0  0  2  0  0  0  0  0  0
   12.5390   -0.9650   22.2610 C   0  0  0  0  0  3  0  0  0  0  0  0
   12.7810   -0.0400   23.2490 C   0  0  0  0  0  2  0  0  0  0  0  0
   11.7290    0.4070   24.0310 C   0  0  0  0  0  2  0  0  0  0  0  0
   10.4350   -0.0520   23.7920 C   0  0  0  0  0  3  0  0  0  0  0  0
    7.8840   -1.3970   23.6750 C   0  0  0  0  0  2  0  0  0  0  0  0
    8.8040   -1.4590   22.4350 C   0  0  0  0  0  3  0  0  0  0  0  0
    8.3640   -0.5220   21.3120 C   0  0  0  0  0  3  0  0  0  0  0  0
    6.5550   -0.2190   19.6690 C   0  0  0  0  0  3  0  0  0  0  0  0
    6.9090   -0.1520   18.3220 C   0  0  0  0  0  2  0  0  0  0  0  0
    5.2510    1.3300   17.8140 C   0  0  0  0  0  2  0  0  0  0  0  0
    4.7670    1.3580   19.1440 C   0  0  0  0  0  3  0  0  0  0  0  0
    3.6480    2.1270   19.5500 C   0  0  0  0  0  2  0  0  0  0  0  0
   13.8640   -1.5630   21.3060 Cl  0  0  0  0  0  0  0  0  0  0  0  0
    9.3520    0.3750   24.5630 N   0  0  0  0  0  0  0  0  0  0  0  0
    7.2760   -0.9370   20.6330 N   0  0  0  0  0  2  0  0  0  0  0  0
    6.2850    0.5990   17.4090 N   0  0  0  0  0  2  0  0  0  0  0  0
    8.9570    0.5280   21.0640 O   0  0  0  0  0  1  0  0  0  0  0  0
  1 22  1  0
  2 13  1  0
  2 22  1  0
  3  4  1  0
  3 20  1  0
  4  5  1  0
  5  6  1  0
  6 16  1  0
  6 19  1  0
  7  8  1  0
  7 12  1  0
  7 14  1  0
  8  9  1  0
  9 10  1  0
  9 21  1  0
 10 11  1  0
 11 12  1  0
 12 22  1  0
 13 14  1  0
 14 15  1  0
 15 23  1  0
 15 25  1  0
 16 17  1  0
 16 23  1  0
 17 24  1  0
 18 19  1  0
 18 24  1  0
 19 20  1  0
M  END
$$$$
