7ggz_A_PVR_404
     RDKit          3D

 22 24  0  0  0  0  0  0  0  0999 V2000
    8.4110   -4.5990   27.3450 C   0  0  0  0  0  1  0  0  0  0  0  0
    8.2170   -3.1960   26.8540 C   0  0  0  0  0  3  0  0  0  0  0  0
    5.9010    0.4290   20.4720 C   0  0  0  0  0  3  0  0  0  0  0  0
    5.5090    0.3220   21.9380 C   0  0  0  0  0  3  0  0  0  0  0  0
    5.9040    1.3670   22.9410 C   0  0  0  0  0  2  0  0  0  0  0  0
    4.4900    1.2550   22.5230 C   0  0  0  0  0  2  0  0  0  0  0  0
   10.1640   -2.6920   23.8380 C   0  0  0  0  0  2  0  0  0  0  0  0
    9.3330   -3.6730   24.6550 C   0  0  0  0  0  2  0  0  0  0  0  0
    7.6110   -1.8970   24.8880 C   0  0  0  0  0  2  0  0  0  0  0  0
    8.5170   -0.9810   24.0920 C   0  0  0  0  0  2  0  0  0  0  0  0
   10.0380   -0.9000   22.2170 C   0  0  0  0  0  2  0  0  0  0  0  0
    9.1460   -0.0350   21.3440 C   0  0  0  0  0  3  0  0  0  0  0  0
    7.1010   -0.1000   19.9780 C   0  0  0  0  0  3  0  0  0  0  0  0
    7.3540   -0.0030   18.6100 C   0  0  0  0  0  2  0  0  0  0  0  0
    5.3820    1.0850   18.2330 C   0  0  0  0  0  2  0  0  0  0  0  0
    5.0380    1.0420   19.5690 C   0  0  0  0  0  2  0  0  0  0  0  0
    8.4030   -2.9500   25.5380 N   0  0  0  0  0  0  0  0  0  0  0  0
    9.2850   -1.7640   23.1200 N   0  0  0  0  0  0  0  0  0  0  0  0
    8.0500   -0.6660   20.8630 N   0  0  0  0  0  2  0  0  0  0  0  0
    6.5160    0.5780   17.7440 N   0  0  0  0  0  2  0  0  0  0  0  0
    7.8510   -2.3050   27.6070 O   0  0  0  0  0  1  0  0  0  0  0  0
    9.4260    1.1370   21.1070 O   0  0  0  0  0  1  0  0  0  0  0  0
  1  2  1  0
  2 17  1  0
  2 21  1  0
  3  4  1  0
  3 13  1  0
  3 16  1  0
  4  5  1  0
  4  6  1  0
  5  6  1  0
  7  8  1  0
  7 18  1  0
  8 17  1  0
  9 10  1  0
  9 17  1  0
 10 18  1  0
 11 12  1  0
 11 18  1  0
 12 19  1  0
 12 22  1  0
 13 14  1  0
 13 19  1  0
 14 20  1  0
 15 16  1  0
 15 20  1  0
M  END
$$$$
