7gh1_A_PZ6_404
     RDKit          3D

 26 29  0  0  0  0  0  0  0  0999 V2000
    7.6600   -3.5830   23.1020 C   0  0  0  0  0  2  0  0  0  0  0  0
    8.0740   -2.2000   22.5730 C   0  0  0  0  0  0  0  0  0  0  0  0
    7.1920   -1.7360   21.4040 C   0  0  0  0  0  3  0  0  0  0  0  0
    6.6850    0.1250   19.8950 C   0  0  0  0  0  3  0  0  0  0  0  0
    7.0840    0.0600   18.5590 C   0  0  0  0  0  2  0  0  0  0  0  0
    5.3580    1.3530   17.8260 C   0  0  0  0  0  2  0  0  0  0  0  0
    4.8150    1.4930   19.1270 C   0  0  0  0  0  3  0  0  0  0  0  0
    3.6290    2.2160   19.4000 C   0  0  0  0  0  2  0  0  0  0  0  0
    3.1480    2.3010   20.6750 C   0  0  0  0  0  2  0  0  0  0  0  0
    3.8140    1.6880   21.7250 C   0  0  0  0  0  2  0  0  0  0  0  0
    4.9640    0.9870   21.5050 C   0  0  0  0  0  2  0  0  0  0  0  0
    5.5020    0.8610   20.1990 C   0  0  0  0  0  3  0  0  0  0  0  0
    9.5260   -2.3230   22.0620 C   0  0  0  0  0  2  0  0  0  0  0  0
   10.5110   -2.3730   23.2100 C   0  0  0  0  0  2  0  0  0  0  0  0
    9.2170   -0.6890   24.2970 C   0  0  0  0  0  3  0  0  0  0  0  0
    9.1760    0.2700   25.2960 C   0  0  0  0  0  2  0  0  0  0  0  0
    7.9540    0.7710   25.7050 C   0  0  0  0  0  2  0  0  0  0  0  0
    6.8010    0.3040   25.1110 C   0  0  0  0  0  3  0  0  0  0  0  0
    6.8260   -0.6510   24.1160 C   0  0  0  0  0  2  0  0  0  0  0  0
    8.0450   -1.1610   23.6870 C   0  0  0  0  0  3  0  0  0  0  0  0
    5.2630    0.9070   25.6510 Cl  0  0  0  0  0  0  0  0  0  0  0  0
    6.2310   -3.7440   23.3650 N   0  0  0  0  0  1  0  0  0  0  0  0
    7.3840   -0.4840   20.9560 N   0  0  0  0  0  2  0  0  0  0  0  0
    6.4530    0.6610   17.5450 N   0  0  0  0  0  2  0  0  0  0  0  0
   10.4730   -1.1490   23.9740 O   0  0  0  0  0  0  0  0  0  0  0  0
    6.3630   -2.4820   20.9070 O   0  0  0  0  0  1  0  0  0  0  0  0
  1  2  1  0
  1 22  1  0
  2  3  1  0
  2 13  1  0
  2 20  1  0
  3 23  1  0
  3 26  1  0
  4  5  1  0
  4 12  1  0
  4 23  1  0
  5 24  1  0
  6  7  1  0
  6 24  1  0
  7  8  1  0
  7 12  1  0
  8  9  1  0
  9 10  1  0
 10 11  1  0
 11 12  1  0
 13 14  1  0
 14 25  1  0
 15 16  1  0
 15 20  1  0
 15 25  1  0
 16 17  1  0
 17 18  1  0
 18 19  1  0
 18 21  1  0
 19 20  1  0
M  END
$$$$
