7gh3_A_Q1C_404
     RDKit          3D

 18 19  0  0  0  0  0  0  0  0999 V2000
   14.0290   -1.4930   24.1460 C   0  0  0  0  0  1  0  0  0  0  0  0
   12.5360   -1.6020   23.9130 C   0  0  0  0  0  3  0  0  0  0  0  0
    5.0890    0.9580   20.0850 C   0  0  0  0  0  3  0  0  0  0  0  0
    4.4520    1.1280   21.4410 C   0  0  0  0  0  1  0  0  0  0  0  0
   10.6660   -1.5540   22.2410 C   0  0  0  0  0  2  0  0  0  0  0  0
   12.1690   -1.4390   22.4500 C   0  0  0  0  0  2  0  0  0  0  0  0
   11.7440   -0.6090   24.7490 C   0  0  0  0  0  2  0  0  0  0  0  0
   10.2410   -0.7280   24.4850 C   0  0  0  0  0  2  0  0  0  0  0  0
    8.5030   -0.6600   22.8000 C   0  0  0  0  0  2  0  0  0  0  0  0
    8.1280   -0.0780   21.4480 C   0  0  0  0  0  3  0  0  0  0  0  0
    6.2510    0.1960   19.9020 C   0  0  0  0  0  3  0  0  0  0  0  0
    6.8020    0.1020   18.6180 C   0  0  0  0  0  2  0  0  0  0  0  0
    5.1760    1.4410   17.7360 C   0  0  0  0  0  2  0  0  0  0  0  0
    4.5540    1.5860   18.9640 C   0  0  0  0  0  2  0  0  0  0  0  0
    9.9350   -0.5580   23.0480 N   0  0  0  0  0  0  0  0  0  0  0  0
    6.8830   -0.3860   21.0260 N   0  0  0  0  0  2  0  0  0  0  0  0
    6.2820    0.7120   17.5470 N   0  0  0  0  0  2  0  0  0  0  0  0
    8.9100    0.6380   20.8270 O   0  0  0  0  0  1  0  0  0  0  0  0
  1  2  1  0
  2  6  1  0
  2  7  1  0
  3  4  1  0
  3 11  1  0
  3 14  1  0
  5  6  1  0
  5 15  1  0
  7  8  1  0
  8 15  1  0
  9 10  1  0
  9 15  1  0
 10 16  1  0
 10 18  1  0
 11 12  1  0
 11 16  1  0
 12 17  1  0
 13 14  1  0
 13 17  1  0
M  END
$$$$
