7gh7_A_Q36_1001
     RDKit          3D

 20 21  0  0  0  0  0  0  0  0999 V2000
    9.1910   -1.0050   23.6770 C   0  0  0  0  0  1  0  0  0  0  0  0
    9.9490   -1.2010   22.3580 C   0  0  0  0  0  3  0  0  0  0  0  0
   11.9370   -0.0310   23.4400 C   0  0  0  0  0  2  0  0  0  0  0  0
   13.2930    0.2570   23.5050 C   0  0  0  0  0  2  0  0  0  0  0  0
   14.1640   -0.2880   22.5740 C   0  0  0  0  0  2  0  0  0  0  0  0
   13.6780   -1.1540   21.5970 C   0  0  0  0  0  3  0  0  0  0  0  0
   14.5530   -1.6560   20.5680 C   0  0  0  0  0  2  0  0  0  0  0  0
   12.3220   -1.4710   21.5600 C   0  0  0  0  0  2  0  0  0  0  0  0
    9.4160   -0.3420   21.2070 C   0  0  0  0  0  3  0  0  0  0  0  0
    7.5470   -0.0100   19.7020 C   0  0  0  0  0  3  0  0  0  0  0  0
    7.9720   -0.1330   18.3800 C   0  0  0  0  0  2  0  0  0  0  0  0
    6.1910    1.0890   17.6310 C   0  0  0  0  0  2  0  0  0  0  0  0
    5.7200    1.2970   18.9120 C   0  0  0  0  0  2  0  0  0  0  0  0
    6.4060    0.7560   19.9890 C   0  0  0  0  0  3  0  0  0  0  0  0
    5.9650    1.0400   21.4030 C   0  0  0  0  0  1  0  0  0  0  0  0
   11.4390   -0.8960   22.4680 C   0  0  0  0  0  3  0  0  0  0  0  0
    8.2080   -0.7010   20.7320 N   0  0  0  0  0  2  0  0  0  0  0  0
    7.3090    0.4030   17.3540 N   0  0  0  0  0  2  0  0  0  0  0  0
   15.2150   -2.0690   19.7330 N   0  0  0  0  0  1  0  0  0  0  0  0
   10.0530    0.6060   20.7590 O   0  0  0  0  0  1  0  0  0  0  0  0
  1  2  1  0
  2  9  1  0
  2 16  1  0
  3  4  1  0
  3 16  1  0
  4  5  1  0
  5  6  1  0
  6  7  1  0
  6  8  1  0
  7 19  1  0
  8 16  1  0
  9 17  1  0
  9 20  1  0
 10 11  1  0
 10 14  1  0
 10 17  1  0
 11 18  1  0
 12 13  1  0
 12 18  1  0
 13 14  1  0
 14 15  1  0
M  END
$$$$
