7gh8_A_Q3U_1001
     RDKit          3D

 18 19  0  0  0  0  0  0  0  0999 V2000
    4.7920    1.3810   19.0880 C   0  0  0  0  0  3  0  0  0  0  0  0
    5.3570    1.2500   17.8110 C   0  0  0  0  0  2  0  0  0  0  0  0
   11.5890   -1.1430   22.1340 C   0  0  0  0  0  2  0  0  0  0  0  0
    5.4420    0.7390   20.1420 C   0  0  0  0  0  2  0  0  0  0  0  0
    7.0670   -0.0480   18.5880 C   0  0  0  0  0  2  0  0  0  0  0  0
    6.6040    0.0150   19.9000 C   0  0  0  0  0  3  0  0  0  0  0  0
    8.5810   -0.0060   21.3530 C   0  0  0  0  0  3  0  0  0  0  0  0
   10.5250   -0.5050   22.7600 C   0  0  0  0  0  3  0  0  0  0  0  0
   10.7600    0.5540   23.6290 C   0  0  0  0  0  2  0  0  0  0  0  0
   12.0490    1.0320   23.8010 C   0  0  0  0  0  2  0  0  0  0  0  0
   13.1100    0.4480   23.1270 C   0  0  0  0  0  2  0  0  0  0  0  0
   12.8630   -0.6470   22.3200 C   0  0  0  0  0  3  0  0  0  0  0  0
   14.1950   -1.4450   21.5440 Cl  0  0  0  0  0  0  0  0  0  0  0  0
    3.6590    2.1230   19.3120 N   0  0  0  0  0  1  0  0  0  0  0  0
    6.4710    0.5620   17.5620 N   0  0  0  0  0  2  0  0  0  0  0  0
    7.3890   -0.5310   20.9370 N   0  0  0  0  0  2  0  0  0  0  0  0
    9.2220   -0.7720   22.2870 N   0  0  0  0  0  2  0  0  0  0  0  0
    9.0460    1.0400   20.9080 O   0  0  0  0  0  1  0  0  0  0  0  0
  1  2  1  0
  1  4  1  0
  1 14  1  0
  2 15  1  0
  3  8  1  0
  3 12  1  0
  4  6  1  0
  5  6  1  0
  5 15  1  0
  6 16  1  0
  7 16  1  0
  7 17  1  0
  7 18  1  0
  8  9  1  0
  8 17  1  0
  9 10  1  0
 10 11  1  0
 11 12  1  0
 12 13  1  0
M  END
$$$$
