7gha_A_Q4F_1001
     RDKit          3D

 18 20  0  0  0  0  0  0  0  0999 V2000
    7.0240   -3.0280   18.9510 C   0  0  0  0  0  1  0  0  0  0  0  0
    6.9460   -4.0940   20.0270 C   0  0  0  0  0  3  0  0  0  0  0  0
   12.5130    0.6820   23.7340 C   0  0  0  0  0  2  0  0  0  0  0  0
   13.3410    0.1830   22.7400 C   0  0  0  0  0  2  0  0  0  0  0  0
   13.0490   -1.0490   22.1930 C   0  0  0  0  0  3  0  0  0  0  0  0
   11.9540   -1.7850   22.6020 C   0  0  0  0  0  2  0  0  0  0  0  0
    8.0190   -4.6540   22.2330 C   0  0  0  0  0  2  0  0  0  0  0  0
    8.2050   -3.7290   23.4330 C   0  0  0  0  0  3  0  0  0  0  0  0
    6.8840   -2.9540   23.4040 C   0  0  0  0  0  2  0  0  0  0  0  0
    7.1250   -2.4900   21.9660 C   0  0  0  0  0  3  0  0  0  0  0  0
    8.4650   -1.7850   22.1510 C   0  0  0  0  0  2  0  0  0  0  0  0
    9.9460   -2.0950   24.0900 C   0  0  0  0  0  2  0  0  0  0  0  0
   11.1270   -1.2890   23.6050 C   0  0  0  0  0  3  0  0  0  0  0  0
   11.4180   -0.0510   24.1630 C   0  0  0  0  0  2  0  0  0  0  0  0
   14.1230   -1.7280   21.0020 Cl  0  0  0  0  0  0  0  0  0  0  0  0
    7.3470   -3.7740   21.2740 N   0  0  0  0  0  0  0  0  0  0  0  0
    9.2120   -2.7350   22.9930 N   0  0  0  0  0  0  0  0  0  0  0  0
    6.4960   -5.1980   19.7830 O   0  0  0  0  0  1  0  0  0  0  0  0
  1  2  1  0
  2 16  1  0
  2 18  1  0
  3  4  1  0
  3 14  1  0
  4  5  1  0
  5  6  1  0
  5 15  1  0
  6 13  1  0
  7  8  1  0
  7 16  1  0
  8  9  1  0
  8 17  1  0
  9 10  1  0
 10 11  1  0
 10 16  1  0
 11 17  1  0
 12 13  1  0
 12 17  1  0
 13 14  1  0
M  END
$$$$
