7ghb_A_Q4R_1001
     RDKit          3D

 26 28  0  0  0  0  0  0  0  0999 V2000
    8.4310   -0.2400   24.7190 C   0  0  0  0  0  1  0  0  0  0  0  0
    9.5280   -0.9830   22.5780 C   0  0  0  0  0  2  0  0  0  0  0  0
   13.1950   -1.4980   25.0860 C   0  0  0  0  0  2  0  0  0  0  0  0
   13.8810   -2.5870   25.5910 C   0  0  0  0  0  2  0  0  0  0  0  0
   13.2110   -3.6540   26.1050 C   0  0  0  0  0  2  0  0  0  0  0  0
   11.7960   -3.6850   26.1150 C   0  0  0  0  0  3  0  0  0  0  0  0
   11.0310   -4.8060   26.5130 C   0  0  0  0  0  2  0  0  0  0  0  0
    9.6720   -4.7800   26.4130 C   0  0  0  0  0  2  0  0  0  0  0  0
    9.0630   -3.6400   25.9230 C   0  0  0  0  0  2  0  0  0  0  0  0
   11.0770   -2.5700   25.6200 C   0  0  0  0  0  3  0  0  0  0  0  0
    8.9390   -0.0980   21.4940 C   0  0  0  0  0  3  0  0  0  0  0  0
    6.9720    0.0610   19.9960 C   0  0  0  0  0  3  0  0  0  0  0  0
    7.4010    0.0260   18.6680 C   0  0  0  0  0  2  0  0  0  0  0  0
    5.5200    1.0990   17.9410 C   0  0  0  0  0  2  0  0  0  0  0  0
    5.0100    1.1870   19.2210 C   0  0  0  0  0  2  0  0  0  0  0  0
    5.7360    0.6660   20.2890 C   0  0  0  0  0  3  0  0  0  0  0  0
    5.2130    0.7710   21.6990 C   0  0  0  0  0  1  0  0  0  0  0  0
   11.8270   -1.4660   25.1170 C   0  0  0  0  0  3  0  0  0  0  0  0
    9.6360   -0.3110   23.8860 N   0  0  0  0  0  0  0  0  0  0  0  0
    7.7380   -0.5140   21.0370 N   0  0  0  0  0  2  0  0  0  0  0  0
    6.6970    0.5330   17.6510 N   0  0  0  0  0  2  0  0  0  0  0  0
    9.7130   -2.5550   25.5340 N   0  0  0  0  0  2  0  0  0  0  0  0
    9.5190    0.9120   21.0990 O   0  0  0  0  0  1  0  0  0  0  0  0
   10.7640    0.8170   25.7480 O   0  0  0  0  0  1  0  0  0  0  0  0
   11.8920    0.6080   23.5570 O   0  0  0  0  0  1  0  0  0  0  0  0
   11.0640    0.0500   24.5790 S   0  0  0  0  0  4  0  0  0  0  0  0
  1 19  1  0
  2 11  1  0
  2 19  1  0
  3  4  1  0
  3 18  1  0
  4  5  1  0
  5  6  1  0
  6  7  1  0
  6 10  1  0
  7  8  1  0
  8  9  1  0
  9 22  1  0
 10 18  1  0
 10 22  1  0
 11 20  1  0
 11 23  1  0
 12 13  1  0
 12 16  1  0
 12 20  1  0
 13 21  1  0
 14 15  1  0
 14 21  1  0
 15 16  1  0
 16 17  1  0
 18 26  1  0
 19 26  1  0
 24 26  1  0
 25 26  1  0
M  END
$$$$
