7k6d_A_SV6_402
     RDKit          3D

 49 53  0  0  0  0  0  0  0  0999 V2000
    8.3210   -1.3320   22.9910 C   0  0  0  0  0  3  0  0  0  0  0  0
    9.6330   -0.5340   23.0560 C   0  0  0  0  0  3  0  0  0  0  0  0
    6.5370   -2.4150   21.7620 C   0  0  0  0  0  3  0  0  0  0  0  0
    6.7000   -3.8100   21.1100 C   0  0  0  0  0  3  0  0  0  0  0  0
    5.4150   -1.6440   21.0350 C   0  0  0  0  0  2  0  0  0  0  0  0
    5.5130   -0.1270   21.1190 C   0  0  0  0  0  2  0  0  0  0  0  0
    5.3000    0.4680   19.7340 C   0  0  0  0  0  1  0  0  0  0  0  0
    5.3720   -4.5940   21.1340 C   0  0  0  0  0  3  0  0  0  0  0  0
    3.9330   -6.0820   22.5280 C   0  0  0  0  0  3  0  0  0  0  0  0
    3.5200   -6.3470   23.9700 C   0  0  0  0  0  2  0  0  0  0  0  0
    2.7080   -5.3950   23.1220 C   0  0  0  0  0  2  0  0  0  0  0  0
    8.6910    1.8160   23.1450 C   0  0  0  0  0  3  0  0  0  0  0  0
    8.3020    3.0860   23.9680 C   0  0  0  0  0  3  0  0  0  0  0  0
    9.9960    4.7630   24.3520 C   0  0  0  0  0  3  0  0  0  0  0  0
   10.8520    5.9300   23.8130 C   0  0  0  0  0  3  0  0  0  0  0  0
    6.7510    3.3780   23.9020 C   0  0  0  0  0  0  0  0  0  0  0  0
   10.6390   -1.2530   23.9720 C   0  0  0  0  0  3  0  0  0  0  0  0
    6.2440    3.7530   22.5020 C   0  0  0  0  0  1  0  0  0  0  0  0
   11.5220    7.8830   25.1750 C   0  0  0  0  0  3  0  0  0  0  0  0
    5.9830    2.1570   24.4060 C   0  0  0  0  0  1  0  0  0  0  0  0
    6.4580    4.5140   24.9050 C   0  0  0  0  0  1  0  0  0  0  0  0
   12.0420   -1.2760   23.3400 C   0  0  0  0  0  2  0  0  0  0  0  0
   12.7000    0.0350   23.7720 C   0  0  0  0  0  2  0  0  0  0  0  0
   11.9650    5.3100   22.9170 C   0  0  0  0  0  3  0  0  0  0  0  0
   12.8600    4.3000   23.6560 C   0  0  0  0  0  2  0  0  0  0  0  0
   13.9810    3.7690   22.7710 C   0  0  0  0  0  2  0  0  0  0  0  0
   14.7850    4.8940   22.1150 C   0  0  0  0  0  2  0  0  0  0  0  0
   13.8610    5.8010   21.3220 C   0  0  0  0  0  2  0  0  0  0  0  0
   12.8200    6.3960   22.2530 C   0  0  0  0  0  2  0  0  0  0  0  0
   11.9320    8.3900   26.5250 C   0  0  0  0  0  3  0  0  0  0  0  0
   12.5660    7.9280   28.7080 C   0  0  0  0  0  2  0  0  0  0  0  0
   12.5840    9.3080   28.9930 C   0  0  0  0  0  2  0  0  0  0  0  0
   11.9250    9.7740   26.8150 C   0  0  0  0  0  2  0  0  0  0  0  0
    9.5420    0.5780   25.1830 C   0  0  0  0  0  2  0  0  0  0  0  0
   12.0910    0.3670   25.1370 C   0  0  0  0  0  2  0  0  0  0  0  0
   10.7390   -0.3600   25.2340 C   0  0  0  0  0  3  0  0  0  0  0  0
    9.2660    0.7050   23.7490 N   0  0  0  0  0  0  0  0  0  0  0  0
    5.1110   -5.3120   22.2900 N   0  0  0  0  0  2  0  0  0  0  0  0
    9.0630    4.2140   23.5020 N   0  0  0  0  0  2  0  0  0  0  0  0
   11.3320    6.5310   25.0550 N   0  0  0  0  0  2  0  0  0  0  0  0
    7.8230   -1.7120   21.7620 N   0  0  0  0  0  2  0  0  0  0  0  0
   12.2220    7.4670   27.4790 N   0  0  0  0  0  2  0  0  0  0  0  0
   12.2650   10.2210   28.0480 N   0  0  0  0  0  2  0  0  0  0  0  0
    7.6560   -1.5670   24.0030 O   0  0  0  0  0  1  0  0  0  0  0  0
    7.6040   -4.5280   21.8620 O   0  0  0  0  0  1  0  0  0  0  0  0
    4.5740   -4.5180   20.1940 O   0  0  0  0  0  1  0  0  0  0  0  0
    8.5300    1.7810   21.9340 O   0  0  0  0  0  1  0  0  0  0  0  0
   10.1540    4.3080   25.5160 O   0  0  0  0  0  1  0  0  0  0  0  0
   11.3150    8.6490   24.2390 O   0  0  0  0  0  1  0  0  0  0  0  0
  1  2  1  0
  1 41  1  0
  1 44  1  0
  2 17  1  0
  2 37  1  0
  3  4  1  0
  3  5  1  0
  3 41  1  0
  4  8  1  0
  4 45  1  0
  5  6  1  0
  6  7  1  0
  8 38  1  0
  8 46  1  0
  9 10  1  0
  9 11  1  0
  9 38  1  0
 10 11  1  0
 12 13  1  0
 12 37  1  0
 12 47  1  0
 13 16  1  0
 13 39  1  0
 14 15  1  0
 14 39  1  0
 14 48  1  0
 15 24  1  0
 15 40  1  0
 16 18  1  0
 16 20  1  0
 16 21  1  0
 17 22  1  0
 17 36  1  0
 19 30  1  0
 19 40  1  0
 19 49  1  0
 22 23  1  0
 23 35  1  0
 24 25  1  0
 24 29  1  0
 25 26  1  0
 26 27  1  0
 27 28  1  0
 28 29  1  0
 30 33  1  0
 30 42  1  0
 31 32  1  0
 31 42  1  0
 32 43  1  0
 33 43  1  0
 34 36  1  0
 34 37  1  0
 35 36  1  0
M  END
$$$$
