7k6e_A_SV6_402
     RDKit          3D

 49 53  0  0  0  0  0  0  0  0999 V2000
    8.3210   -1.4180   22.9910 C   0  0  0  0  0  3  0  0  0  0  0  0
    9.6370   -0.6280   23.0520 C   0  0  0  0  0  3  0  0  0  0  0  0
    6.4920   -2.4360   21.7260 C   0  0  0  0  0  3  0  0  0  0  0  0
    6.6700   -3.8560   21.1010 C   0  0  0  0  0  3  0  0  0  0  0  0
    5.4530   -1.6220   20.9080 C   0  0  0  0  0  2  0  0  0  0  0  0
    5.4330   -0.1180   21.2110 C   0  0  0  0  0  2  0  0  0  0  0  0
    4.0390    0.5000   21.0720 C   0  0  0  0  0  1  0  0  0  0  0  0
    5.3440   -4.6380   21.1180 C   0  0  0  0  0  3  0  0  0  0  0  0
    3.8260   -6.1030   22.4880 C   0  0  0  0  0  3  0  0  0  0  0  0
    3.3970   -6.4200   23.9180 C   0  0  0  0  0  2  0  0  0  0  0  0
    2.6100   -5.4140   23.1100 C   0  0  0  0  0  2  0  0  0  0  0  0
    8.6360    1.7070   23.1720 C   0  0  0  0  0  3  0  0  0  0  0  0
    8.2440    2.9900   23.9880 C   0  0  0  0  0  3  0  0  0  0  0  0
    9.9380    4.7200   24.2900 C   0  0  0  0  0  3  0  0  0  0  0  0
   10.7640    5.9070   23.7390 C   0  0  0  0  0  3  0  0  0  0  0  0
    6.6960    3.3060   23.9080 C   0  0  0  0  0  0  0  0  0  0  0  0
   10.6510   -1.3590   23.9610 C   0  0  0  0  0  3  0  0  0  0  0  0
    6.2350    3.7200   22.5050 C   0  0  0  0  0  1  0  0  0  0  0  0
   11.4380    7.8220   25.1630 C   0  0  0  0  0  3  0  0  0  0  0  0
    5.9090    2.0770   24.3750 C   0  0  0  0  0  1  0  0  0  0  0  0
    6.3430    4.4790   24.8460 C   0  0  0  0  0  1  0  0  0  0  0  0
   12.0240   -1.4390   23.3030 C   0  0  0  0  0  2  0  0  0  0  0  0
   12.6950   -0.1020   23.6290 C   0  0  0  0  0  2  0  0  0  0  0  0
   11.8990    5.3200   22.8240 C   0  0  0  0  0  3  0  0  0  0  0  0
   12.7340    4.2290   23.5140 C   0  0  0  0  0  2  0  0  0  0  0  0
   13.9510    3.7450   22.7250 C   0  0  0  0  0  2  0  0  0  0  0  0
   14.7700    4.8500   22.0630 C   0  0  0  0  0  2  0  0  0  0  0  0
   13.8740    5.8240   21.3220 C   0  0  0  0  0  2  0  0  0  0  0  0
   12.8490    6.4030   22.2810 C   0  0  0  0  0  2  0  0  0  0  0  0
   11.8680    8.3310   26.5080 C   0  0  0  0  0  3  0  0  0  0  0  0
   12.6010    7.9150   28.6480 C   0  0  0  0  0  2  0  0  0  0  0  0
   12.5390    9.2930   28.9370 C   0  0  0  0  0  2  0  0  0  0  0  0
   11.7820    9.7150   26.8040 C   0  0  0  0  0  2  0  0  0  0  0  0
    9.5910    0.4700   25.1740 C   0  0  0  0  0  2  0  0  0  0  0  0
   12.1350    0.3160   24.9910 C   0  0  0  0  0  2  0  0  0  0  0  0
   10.8190   -0.4460   25.1870 C   0  0  0  0  0  3  0  0  0  0  0  0
    9.2720    0.6110   23.7500 N   0  0  0  0  0  0  0  0  0  0  0  0
    5.0190   -5.3370   22.2730 N   0  0  0  0  0  2  0  0  0  0  0  0
    8.9850    4.1260   23.4830 N   0  0  0  0  0  2  0  0  0  0  0  0
   11.2490    6.4740   24.9950 N   0  0  0  0  0  2  0  0  0  0  0  0
    7.7810   -1.7480   21.7610 N   0  0  0  0  0  2  0  0  0  0  0  0
   12.2550    7.4230   27.4370 N   0  0  0  0  0  2  0  0  0  0  0  0
   12.1400   10.1950   28.0200 N   0  0  0  0  0  2  0  0  0  0  0  0
    7.7110   -1.6940   24.0170 O   0  0  0  0  0  1  0  0  0  0  0  0
    7.6050   -4.5400   21.8820 O   0  0  0  0  0  1  0  0  0  0  0  0
    4.6060   -4.5850   20.1380 O   0  0  0  0  0  1  0  0  0  0  0  0
    8.4320    1.6650   21.9580 O   0  0  0  0  0  1  0  0  0  0  0  0
   10.1320    4.2850   25.4490 O   0  0  0  0  0  1  0  0  0  0  0  0
   11.2280    8.6120   24.2570 O   0  0  0  0  0  1  0  0  0  0  0  0
  1  2  1  0
  1 41  1  0
  1 44  1  0
  2 17  1  0
  2 37  1  0
  3  4  1  0
  3  5  1  0
  3 41  1  0
  4  8  1  0
  4 45  1  0
  5  6  1  0
  6  7  1  0
  8 38  1  0
  8 46  1  0
  9 10  1  0
  9 11  1  0
  9 38  1  0
 10 11  1  0
 12 13  1  0
 12 37  1  0
 12 47  1  0
 13 16  1  0
 13 39  1  0
 14 15  1  0
 14 39  1  0
 14 48  1  0
 15 24  1  0
 15 40  1  0
 16 18  1  0
 16 20  1  0
 16 21  1  0
 17 22  1  0
 17 36  1  0
 19 30  1  0
 19 40  1  0
 19 49  1  0
 22 23  1  0
 23 35  1  0
 24 25  1  0
 24 29  1  0
 25 26  1  0
 26 27  1  0
 27 28  1  0
 28 29  1  0
 30 33  1  0
 30 42  1  0
 31 32  1  0
 31 42  1  0
 32 43  1  0
 33 43  1  0
 34 36  1  0
 34 37  1  0
 35 36  1  0
M  END
$$$$
