7mau_B_DIO_501
     RDKit          3D

 14 14  0  0  0  0  0  0  0  0999 V2000
  -10.8350  -12.3900   22.0440 C   0  0  0  0  0  0  0  0  0  0  0  0
  -12.0890  -12.2490   21.1720 C   0  0  0  0  0  0  0  0  0  0  0  0
   -9.7920  -11.0950   20.3300 C   0  0  0  0  0  0  0  0  0  0  0  0
  -11.1560  -10.5220   19.9080 C   0  0  0  0  0  0  0  0  0  0  0  0
  -12.8670  -12.4840   21.7010 H   0  0  0  0  0  0  0  0  0  0  0  0
  -12.0180  -12.8580   20.4200 H   0  0  0  0  0  0  0  0  0  0  0  0
  -10.6020  -13.3310   22.0740 H   0  0  0  0  0  0  0  0  0  0  0  0
  -11.0630  -12.0890   22.9370 H   0  0  0  0  0  0  0  0  0  0  0  0
  -11.3210  -10.7810   18.9880 H   0  0  0  0  0  0  0  0  0  0  0  0
  -11.1070   -9.5540   19.9640 H   0  0  0  0  0  0  0  0  0  0  0  0
   -9.1460  -10.3730   20.2760 H   0  0  0  0  0  0  0  0  0  0  0  0
   -9.5570  -11.7830   19.6870 H   0  0  0  0  0  0  0  0  0  0  0  0
   -9.6750  -11.6710   21.6270 O   0  0  0  0  0  0  0  0  0  0  0  0
  -12.2480  -10.9500   20.6860 O   0  0  0  0  0  0  0  0  0  0  0  0
  1  2  1  0
  1  7  1  0
  1  8  1  0
  1 13  1  0
  2  5  1  0
  2  6  1  0
  2 14  1  0
  3  4  1  0
  3 11  1  0
  3 12  1  0
  3 13  1  0
  4  9  1  0
  4 10  1  0
  4 14  1  0
M  END
$$$$
