7mav_B_YVY_401
     RDKit          3D

 78 79  0  0  0  0  0  0  0  0999 V2000
  -19.0300   -6.5580   44.0870 C   0  0  0  0  0  3  0  0  0  0  0  0
  -19.1990   -7.4280   46.2770 C   0  0  0  0  0  0  0  0  0  0  0  0
  -18.4300   -5.6760   43.0130 C   0  0  0  0  0  0  0  0  0  0  0  0
  -18.6060   -8.8120   46.5500 C   0  0  0  0  0  3  0  0  0  0  0  0
  -19.2870   -7.0260   47.7710 C   0  0  0  0  0  0  0  0  0  0  0  0
  -19.3020   -4.4290   43.2820 C   0  0  0  0  0  0  0  0  0  0  0  0
  -19.6580   -3.2300   45.3760 C   0  0  0  0  0  0  0  0  0  0  0  0
  -20.2600   -1.8400   45.1300 C   0  0  0  0  0  2  0  0  0  0  0  0
  -20.7520   -0.7730   44.9340 C   0  0  0  0  0  2  0  0  0  0  0  0
  -18.8410  -11.2620   47.0050 C   0  0  0  0  0  0  0  0  0  0  0  0
  -18.7530  -12.3900   45.9620 C   0  0  0  0  0  3  0  0  0  0  0  0
  -19.5350  -11.7860   48.3050 C   0  0  0  0  0  0  0  0  0  0  0  0
  -17.8730  -14.8590   45.7150 C   0  0  0  0  0  0  0  0  0  0  0  0
  -20.0030   -8.8450   51.5240 C   0  0  0  0  0  3  0  0  0  0  0  0
  -18.7680   -9.4510   51.2850 C   0  0  0  0  0  3  0  0  0  0  0  0
  -18.6340  -10.3950   50.2610 C   0  0  0  0  0  3  0  0  0  0  0  0
  -19.7080  -10.7530   49.4520 C   0  0  0  0  0  3  0  0  0  0  0  0
  -20.9410  -10.1490   49.7040 C   0  0  0  0  0  3  0  0  0  0  0  0
  -21.0830   -9.2000   50.7210 C   0  0  0  0  0  3  0  0  0  0  0  0
  -16.5540  -14.6180   44.9730 C   0  0  0  0  0  3  0  0  0  0  0  0
  -19.1650  -15.1510   44.9690 C   0  0  0  0  0  0  0  0  0  0  0  0
  -15.6630  -13.4510   45.4090 C   0  0  0  0  0  1  0  0  0  0  0  0
  -20.1220  -15.6900   46.0520 C   0  0  0  0  0  0  0  0  0  0  0  0
  -20.7280  -16.9900   45.5230 C   0  0  0  0  0  0  0  0  0  0  0  0
  -21.8010  -17.8030   43.3710 C   0  0  0  0  0  3  0  0  0  0  0  0
  -21.7060   -3.6520   48.9920 C   0  0  0  0  0  3  0  0  0  0  0  0
  -20.3240   -3.5850   49.0690 C   0  0  0  0  0  3  0  0  0  0  0  0
  -19.5460   -4.6740   48.6850 C   0  0  0  0  0  3  0  0  0  0  0  0
  -20.1470   -5.8330   48.2060 C   0  0  0  0  0  3  0  0  0  0  0  0
  -21.5270   -5.8970   48.1440 C   0  0  0  0  0  3  0  0  0  0  0  0
  -22.3030   -4.8090   48.5250 C   0  0  0  0  0  3  0  0  0  0  0  0
  -17.6880   -6.1940   45.6330 H   0  0  0  0  0  0  0  0  0  0  0  0
  -19.9990   -7.3640   45.7900 H   0  0  0  0  0  0  0  0  0  0  0  0
  -18.5580   -6.0240   42.1500 H   0  0  0  0  0  0  0  0  0  0  0  0
  -17.5160   -5.5120   43.1520 H   0  0  0  0  0  0  0  0  0  0  0  0
  -18.4100   -6.8430   48.0530 H   0  0  0  0  0  0  0  0  0  0  0  0
  -19.6140   -7.7760   48.2320 H   0  0  0  0  0  0  0  0  0  0  0  0
  -19.3400   -3.9160   42.4960 H   0  0  0  0  0  0  0  0  0  0  0  0
  -20.1670   -4.7130   43.5120 H   0  0  0  0  0  0  0  0  0  0  0  0
  -20.3550   -3.8550   45.4490 H   0  0  0  0  0  0  0  0  0  0  0  0
  -19.1680   -3.2120   46.1760 H   0  0  0  0  0  0  0  0  0  0  0  0
  -21.1450    0.0390   44.7780 H   0  0  0  0  0  0  0  0  0  0  0  0
  -20.3220   -9.9440   46.5110 H   0  0  0  0  0  0  0  0  0  0  0  0
  -17.9340  -11.0410   47.1020 H   0  0  0  0  0  0  0  0  0  0  0  0
  -19.0210  -12.4990   48.6370 H   0  0  0  0  0  0  0  0  0  0  0  0
  -20.3880  -12.0980   48.0690 H   0  0  0  0  0  0  0  0  0  0  0  0
  -17.9180  -13.6290   47.3230 H   0  0  0  0  0  0  0  0  0  0  0  0
  -17.7020  -15.6610   46.1720 H   0  0  0  0  0  0  0  0  0  0  0  0
  -20.1010   -8.2190   52.2030 H   0  0  0  0  0  0  0  0  0  0  0  0
  -18.0340   -9.2270   51.8070 H   0  0  0  0  0  0  0  0  0  0  0  0
  -17.8060  -10.7930   50.1170 H   0  0  0  0  0  0  0  0  0  0  0  0
  -21.6790  -10.3810   49.1890 H   0  0  0  0  0  0  0  0  0  0  0  0
  -21.9090   -8.8000   50.8620 H   0  0  0  0  0  0  0  0  0  0  0  0
  -19.0230  -15.7950   44.3000 H   0  0  0  0  0  0  0  0  0  0  0  0
  -19.5090  -14.3680   44.5810 H   0  0  0  0  0  0  0  0  0  0  0  0
  -20.8010  -15.0640   46.2200 H   0  0  0  0  0  0  0  0  0  0  0  0
  -19.6470  -15.8570   46.8450 H   0  0  0  0  0  0  0  0  0  0  0  0
  -20.0450  -17.6160   45.3730 H   0  0  0  0  0  0  0  0  0  0  0  0
  -21.3340  -17.3320   46.1530 H   0  0  0  0  0  0  0  0  0  0  0  0
  -21.6200  -15.9030   44.0580 H   0  0  0  0  0  0  0  0  0  0  0  0
  -22.6950  -16.7020   41.9050 H   0  0  0  0  0  0  0  0  0  0  0  0
  -22.7120  -18.1720   41.5900 H   0  0  0  0  0  0  0  0  0  0  0  0
  -22.2270   -2.9270   49.2510 H   0  0  0  0  0  0  0  0  0  0  0  0
  -19.9150   -2.8100   49.3780 H   0  0  0  0  0  0  0  0  0  0  0  0
  -18.6210   -4.6260   48.7500 H   0  0  0  0  0  0  0  0  0  0  0  0
  -21.9390   -6.6740   47.8450 H   0  0  0  0  0  0  0  0  0  0  0  0
  -23.2290   -4.8590   48.4660 H   0  0  0  0  0  0  0  0  0  0  0  0
  -18.4180   -6.6050   45.4080 N   0  0  0  0  0  0  0  0  0  0  0  0
  -19.4680   -9.9970   46.6540 N   0  0  0  0  0  0  0  0  0  0  0  0
  -18.1410  -13.6260   46.4840 N   0  0  0  0  0  0  0  0  0  0  0  0
  -21.4250  -16.7220   44.2710 N   0  0  0  0  0  0  0  0  0  0  0  0
  -22.4990  -17.5190   42.1250 N   0  0  0  0  0  0  0  0  0  0  0  0
  -20.0490   -7.1350   43.8480 O   0  0  0  0  0  1  0  0  0  0  0  0
  -18.8050   -3.6160   44.3250 O   0  0  0  0  0  0  0  0  0  0  0  0
  -17.4200   -8.8700   46.7600 O   0  0  0  0  0  1  0  0  0  0  0  0
  -19.1060  -12.2120   44.8290 O   0  0  0  0  0  1  0  0  0  0  0  0
  -16.1850  -15.3630   44.1180 O   0  0  0  0  0  1  0  0  0  0  0  0
  -21.5380  -18.9290   43.6360 O   0  0  0  0  0  1  0  0  0  0  0  0
  1  3  1  0
  1 68  1  0
  1 73  1  0
  2  4  1  0
  2  5  1  0
  2 33  1  0
  2 68  1  0
  3  6  1  0
  3 34  1  0
  3 35  1  0
  4 69  1  0
  4 75  1  0
  5 29  1  0
  5 36  1  0
  5 37  1  0
  6 38  1  0
  6 39  1  0
  6 74  1  0
  7  8  1  0
  7 40  1  0
  7 41  1  0
  7 74  1  0
  8  9  1  0
  9 42  1  0
 10 11  1  0
 10 12  1  0
 10 44  1  0
 10 69  1  0
 11 70  1  0
 11 76  1  0
 12 17  1  0
 12 45  1  0
 12 46  1  0
 13 20  1  0
 13 21  1  0
 13 48  1  0
 13 70  1  0
 14 15  1  0
 14 19  1  0
 14 49  1  0
 15 16  1  0
 15 50  1  0
 16 17  1  0
 16 51  1  0
 17 18  1  0
 18 19  1  0
 18 52  1  0
 19 53  1  0
 20 22  1  0
 20 77  1  0
 21 23  1  0
 21 54  1  0
 21 55  1  0
 23 24  1  0
 23 56  1  0
 23 57  1  0
 24 58  1  0
 24 59  1  0
 24 71  1  0
 25 71  1  0
 25 72  1  0
 25 78  1  0
 26 27  1  0
 26 31  1  0
 26 63  1  0
 27 28  1  0
 27 64  1  0
 28 29  1  0
 28 65  1  0
 29 30  1  0
 30 31  1  0
 30 66  1  0
 31 67  1  0
 32 68  1  0
 43 69  1  0
 47 70  1  0
 60 71  1  0
 61 72  1  0
 62 72  1  0
M  END
$$$$
