7mav_A_YVY_401
     RDKit          3D

 78 79  0  0  0  0  0  0  0  0999 V2000
   25.9080   -8.8340   28.6330 C   0  0  0  0  0  3  0  0  0  0  0  0
   26.3490  -10.6250   27.0510 C   0  0  0  0  0  0  0  0  0  0  0  0
   25.1760   -7.6020   29.1400 C   0  0  0  0  0  0  0  0  0  0  0  0
   25.6640  -11.9960   27.2040 C   0  0  0  0  0  3  0  0  0  0  0  0
   26.6960  -10.7330   25.5470 C   0  0  0  0  0  0  0  0  0  0  0  0
   26.1230   -6.4400   28.8150 C   0  0  0  0  0  0  0  0  0  0  0  0
   27.5410   -5.7190   27.0790 C   0  0  0  0  0  0  0  0  0  0  0  0
   28.2930   -4.7340   27.9780 C   0  0  0  0  0  2  0  0  0  0  0  0
   28.8740   -3.9620   28.6670 C   0  0  0  0  0  2  0  0  0  0  0  0
   25.8400  -14.5240   27.6150 C   0  0  0  0  0  0  0  0  0  0  0  0
   25.7500  -15.1720   28.9860 C   0  0  0  0  0  3  0  0  0  0  0  0
   26.5980  -15.4020   26.5940 C   0  0  0  0  0  0  0  0  0  0  0  0
   24.9970  -17.2780   30.3890 C   0  0  0  0  0  0  0  0  0  0  0  0
   26.7890  -13.6080   22.6430 C   0  0  0  0  0  3  0  0  0  0  0  0
   25.6180  -14.1880   23.0900 C   0  0  0  0  0  3  0  0  0  0  0  0
   25.5650  -14.7620   24.3600 C   0  0  0  0  0  3  0  0  0  0  0  0
   26.6740  -14.7690   25.1820 C   0  0  0  0  0  3  0  0  0  0  0  0
   27.8380  -14.1830   24.7370 C   0  0  0  0  0  3  0  0  0  0  0  0
   27.9020  -13.6060   23.4690 C   0  0  0  0  0  3  0  0  0  0  0  0
   23.6620  -16.7220   30.9660 C   0  0  0  0  0  3  0  0  0  0  0  0
   26.3010  -17.2180   31.1610 C   0  0  0  0  0  0  0  0  0  0  0  0
   22.7780  -15.7790   30.1380 C   0  0  0  0  0  1  0  0  0  0  0  0
   27.1100  -18.3920   30.5810 C   0  0  0  0  0  0  0  0  0  0  0  0
   28.3620  -18.5400   31.4380 C   0  0  0  0  0  0  0  0  0  0  0  0
   29.0680  -19.9010   33.4240 C   0  0  0  0  0  3  0  0  0  0  0  0
   28.9240   -7.4440   23.9030 C   0  0  0  0  0  3  0  0  0  0  0  0
   27.5890   -7.6060   23.5720 C   0  0  0  0  0  3  0  0  0  0  0  0
   26.8720   -8.6750   24.0880 C   0  0  0  0  0  3  0  0  0  0  0  0
   27.4840   -9.5730   24.9490 C   0  0  0  0  0  3  0  0  0  0  0  0
   28.8160   -9.4070   25.2780 C   0  0  0  0  0  3  0  0  0  0  0  0
   29.5360   -8.3430   24.7550 C   0  0  0  0  0  3  0  0  0  0  0  0
   24.8730   -9.2210   26.8920 H   0  0  0  0  0  0  0  0  0  0  0  0
   27.0690  -10.4700   27.6340 H   0  0  0  0  0  0  0  0  0  0  0  0
   25.0260   -7.6610   30.0650 H   0  0  0  0  0  0  0  0  0  0  0  0
   24.3550   -7.4970   28.6960 H   0  0  0  0  0  0  0  0  0  0  0  0
   25.8890  -10.8050   25.0720 H   0  0  0  0  0  0  0  0  0  0  0  0
   27.2020  -11.5150   25.4250 H   0  0  0  0  0  0  0  0  0  0  0  0
   26.5680   -6.1820   29.6000 H   0  0  0  0  0  0  0  0  0  0  0  0
   25.6180   -5.7180   28.4900 H   0  0  0  0  0  0  0  0  0  0  0  0
   28.1200   -6.0330   26.4090 H   0  0  0  0  0  0  0  0  0  0  0  0
   26.8100   -5.2840   26.6820 H   0  0  0  0  0  0  0  0  0  0  0  0
   29.3160   -3.3640   29.1950 H   0  0  0  0  0  0  0  0  0  0  0  0
   27.2840  -13.0980   27.7600 H   0  0  0  0  0  0  0  0  0  0  0  0
   24.9330  -14.4340   27.3890 H   0  0  0  0  0  0  0  0  0  0  0  0
   26.1580  -16.2290   26.5280 H   0  0  0  0  0  0  0  0  0  0  0  0
   27.4730  -15.5370   26.9080 H   0  0  0  0  0  0  0  0  0  0  0  0
   25.0440  -16.9820   28.3820 H   0  0  0  0  0  0  0  0  0  0  0  0
   24.8300  -18.2010   30.3680 H   0  0  0  0  0  0  0  0  0  0  0  0
   26.8300  -13.2230   21.7980 H   0  0  0  0  0  0  0  0  0  0  0  0
   24.8660  -14.1950   22.5460 H   0  0  0  0  0  0  0  0  0  0  0  0
   24.7730  -15.1460   24.6560 H   0  0  0  0  0  0  0  0  0  0  0  0
   28.5880  -14.1730   25.2860 H   0  0  0  0  0  0  0  0  0  0  0  0
   28.6940  -13.2190   23.1770 H   0  0  0  0  0  0  0  0  0  0  0  0
   26.1530  -17.3340   32.0810 H   0  0  0  0  0  0  0  0  0  0  0  0
   26.7420  -16.4020   31.0150 H   0  0  0  0  0  0  0  0  0  0  0  0
   27.3480  -18.2110   29.6910 H   0  0  0  0  0  0  0  0  0  0  0  0
   26.6020  -19.1810   30.6140 H   0  0  0  0  0  0  0  0  0  0  0  0
   29.0380  -18.9650   30.9440 H   0  0  0  0  0  0  0  0  0  0  0  0
   28.6610  -17.6950   31.7150 H   0  0  0  0  0  0  0  0  0  0  0  0
   27.1810  -19.4970   32.7910 H   0  0  0  0  0  0  0  0  0  0  0  0
   31.0880  -20.0070   33.6310 H   0  0  0  0  0  0  0  0  0  0  0  0
   30.7110  -19.1710   32.4380 H   0  0  0  0  0  0  0  0  0  0  0  0
   29.4060   -6.7320   23.5530 H   0  0  0  0  0  0  0  0  0  0  0  0
   27.1750   -6.9990   23.0040 H   0  0  0  0  0  0  0  0  0  0  0  0
   25.9790   -8.7890   23.8560 H   0  0  0  0  0  0  0  0  0  0  0  0
   29.2300  -10.0090   25.8500 H   0  0  0  0  0  0  0  0  0  0  0  0
   30.4320   -8.2350   24.9780 H   0  0  0  0  0  0  0  0  0  0  0  0
   25.5320   -9.4910   27.3870 N   0  0  0  0  0  0  0  0  0  0  0  0
   26.4420  -13.1880   27.5680 N   0  0  0  0  0  0  0  0  0  0  0  0
   25.2290  -16.5580   29.1160 N   0  0  0  0  0  0  0  0  0  0  0  0
   28.0130  -19.3480   32.5960 N   0  0  0  0  0  0  0  0  0  0  0  0
   30.4790  -19.6600   33.1180 N   0  0  0  0  0  0  0  0  0  0  0  0
   26.8160   -9.2400   29.2860 O   0  0  0  0  0  1  0  0  0  0  0  0
   27.0810   -6.8030   27.8420 O   0  0  0  0  0  0  0  0  0  0  0  0
   24.5000  -12.0820   26.9540 O   0  0  0  0  0  1  0  0  0  0  0  0
   26.0680  -14.4590   29.8590 O   0  0  0  0  0  1  0  0  0  0  0  0
   23.2370  -17.0900   32.0010 O   0  0  0  0  0  1  0  0  0  0  0  0
   28.7820  -20.5840   34.3360 O   0  0  0  0  0  1  0  0  0  0  0  0
  1  3  1  0
  1 68  1  0
  1 73  1  0
  2  4  1  0
  2  5  1  0
  2 33  1  0
  2 68  1  0
  3  6  1  0
  3 34  1  0
  3 35  1  0
  4 69  1  0
  4 75  1  0
  5 29  1  0
  5 36  1  0
  5 37  1  0
  6 38  1  0
  6 39  1  0
  6 74  1  0
  7  8  1  0
  7 40  1  0
  7 41  1  0
  7 74  1  0
  8  9  1  0
  9 42  1  0
 10 11  1  0
 10 12  1  0
 10 44  1  0
 10 69  1  0
 11 70  1  0
 11 76  1  0
 12 17  1  0
 12 45  1  0
 12 46  1  0
 13 20  1  0
 13 21  1  0
 13 48  1  0
 13 70  1  0
 14 15  1  0
 14 19  1  0
 14 49  1  0
 15 16  1  0
 15 50  1  0
 16 17  1  0
 16 51  1  0
 17 18  1  0
 18 19  1  0
 18 52  1  0
 19 53  1  0
 20 22  1  0
 20 77  1  0
 21 23  1  0
 21 54  1  0
 21 55  1  0
 23 24  1  0
 23 56  1  0
 23 57  1  0
 24 58  1  0
 24 59  1  0
 24 71  1  0
 25 71  1  0
 25 72  1  0
 25 78  1  0
 26 27  1  0
 26 31  1  0
 26 63  1  0
 27 28  1  0
 27 64  1  0
 28 29  1  0
 28 65  1  0
 29 30  1  0
 30 31  1  0
 30 66  1  0
 31 67  1  0
 32 68  1  0
 43 69  1  0
 47 70  1  0
 60 71  1  0
 61 72  1  0
 62 72  1  0
M  END
$$$$
