7maw_B_YVA_401
     RDKit          3D

 70 72  0  0  0  0  0  0  0  0999 V2000
   24.9990  -10.5280   12.7240 C   0  0  0  0  0  3  0  0  0  0  0  0
   24.8980  -12.9870   12.4710 C   0  0  0  0  0  0  0  0  0  0  0  0
   25.5900  -14.1230   11.7570 C   0  0  0  0  0  0  0  0  0  0  0  0
   23.5200  -13.9780   16.0270 C   0  0  0  0  0  0  0  0  0  0  0  0
   22.5520  -13.0450   16.6930 C   0  0  0  0  0  0  0  0  0  0  0  0
   23.1970  -11.6310   16.7820 C   0  0  0  0  0  0  0  0  0  0  0  0
   22.1980  -10.7760   17.4180 C   0  0  0  0  0  3  0  0  0  0  0  0
   23.1090  -15.4450   16.2560 C   0  0  0  0  0  3  0  0  0  0  0  0
   24.2580  -16.2400   15.6340 C   0  0  0  0  0  0  0  0  0  0  0  0
   24.7140  -17.3480   16.5790 C   0  0  0  0  0  3  0  0  0  0  0  0
   24.8140  -13.2010   13.9710 C   0  0  0  0  0  3  0  0  0  0  0  0
   26.8710  -18.3500   17.0850 C   0  0  0  0  0  0  0  0  0  0  0  0
   26.6580  -19.8790   17.0900 C   0  0  0  0  0  0  0  0  0  0  0  0
   24.3670  -10.1140   18.1980 C   0  0  0  0  0  0  0  0  0  0  0  0
   24.4230  -11.5540   17.6610 C   0  0  0  0  0  0  0  0  0  0  0  0
   25.4240  -13.8220   10.2490 C   0  0  0  0  0  0  0  0  0  0  0  0
   25.5080  -15.0180    9.3060 C   0  0  0  0  0  0  0  0  0  0  0  0
   24.1450  -14.4060    9.6320 C   0  0  0  0  0  0  0  0  0  0  0  0
   25.7680   -9.2290   12.6310 C   0  0  0  0  0  3  0  0  0  0  0  0
   25.3650   -8.3450   11.7850 C   0  0  0  0  0  3  0  0  0  0  0  0
   27.3560   -4.2680   11.0930 C   0  0  0  0  0  3  0  0  0  0  0  0
   27.6520   -5.4390   10.1420 C   0  0  0  0  0  3  0  0  0  0  0  0
   26.9980   -6.8020   10.3880 C   0  0  0  0  0  3  0  0  0  0  0  0
   26.0580   -6.9860   11.5910 C   0  0  0  0  0  3  0  0  0  0  0  0
   25.7440   -5.8290   12.5360 C   0  0  0  0  0  3  0  0  0  0  0  0
   26.4010   -4.4620   12.2820 C   0  0  0  0  0  3  0  0  0  0  0  0
   28.0000   -2.8920   10.8730 C   0  0  0  0  0  2  0  0  0  0  0  0
   28.4700   -1.8040   10.7410 C   0  0  0  0  0  2  0  0  0  0  0  0
   26.4620  -11.7470   11.9900 H   0  0  0  0  0  0  0  0  0  0  0  0
   24.0400  -12.9440   12.0910 H   0  0  0  0  0  0  0  0  0  0  0  0
   25.1860  -14.9420   11.9750 H   0  0  0  0  0  0  0  0  0  0  0  0
   26.5000  -14.1510   11.9880 H   0  0  0  0  0  0  0  0  0  0  0  0
   22.9530  -14.0150   14.0500 H   0  0  0  0  0  0  0  0  0  0  0  0
   24.3520  -13.7840   16.4160 H   0  0  0  0  0  0  0  0  0  0  0  0
   22.3570  -13.3580   17.5570 H   0  0  0  0  0  0  0  0  0  0  0  0
   21.7600  -13.0000   16.1910 H   0  0  0  0  0  0  0  0  0  0  0  0
   23.4730  -11.3430   15.9320 H   0  0  0  0  0  0  0  0  0  0  0  0
   22.6110   -9.2080   18.8000 H   0  0  0  0  0  0  0  0  0  0  0  0
   22.2560  -15.6620   15.8950 H   0  0  0  0  0  0  0  0  0  0  0  0
   24.9780  -15.6610   15.4650 H   0  0  0  0  0  0  0  0  0  0  0  0
   23.9670  -16.6220   14.8270 H   0  0  0  0  0  0  0  0  0  0  0  0
   27.7410  -18.1230   16.8160 H   0  0  0  0  0  0  0  0  0  0  0  0
   26.6960  -17.9740   17.9280 H   0  0  0  0  0  0  0  0  0  0  0  0
   27.4110  -20.2980   17.4630 H   0  0  0  0  0  0  0  0  0  0  0  0
   25.8990  -20.0880   17.6010 H   0  0  0  0  0  0  0  0  0  0  0  0
   26.5360  -20.1810   16.2090 H   0  0  0  0  0  0  0  0  0  0  0  0
   24.7780   -9.5230   17.5960 H   0  0  0  0  0  0  0  0  0  0  0  0
   24.7770  -10.0620   19.0420 H   0  0  0  0  0  0  0  0  0  0  0  0
   24.3700  -12.1750   18.3640 H   0  0  0  0  0  0  0  0  0  0  0  0
   25.2040  -11.6930   17.1580 H   0  0  0  0  0  0  0  0  0  0  0  0
   25.7410  -13.0160    9.8860 H   0  0  0  0  0  0  0  0  0  0  0  0
   25.8390  -14.8330    8.4460 H   0  0  0  0  0  0  0  0  0  0  0  0
   25.6890  -15.8440    9.7140 H   0  0  0  0  0  0  0  0  0  0  0  0
   23.7550  -13.8950    8.9480 H   0  0  0  0  0  0  0  0  0  0  0  0
   23.6050  -14.9060   10.2150 H   0  0  0  0  0  0  0  0  0  0  0  0
   26.5100   -9.0730   13.1700 H   0  0  0  0  0  0  0  0  0  0  0  0
   24.6180   -8.5390   11.2660 H   0  0  0  0  0  0  0  0  0  0  0  0
   28.2260   -5.3210    9.4220 H   0  0  0  0  0  0  0  0  0  0  0  0
   27.1690   -7.5130    9.8150 H   0  0  0  0  0  0  0  0  0  0  0  0
   25.1650   -5.9490   13.2520 H   0  0  0  0  0  0  0  0  0  0  0  0
   26.2210   -3.7500   12.8510 H   0  0  0  0  0  0  0  0  0  0  0  0
   28.8150   -0.9640   10.6350 H   0  0  0  0  0  0  0  0  0  0  0  0
   25.6570  -11.7500   12.3140 N   0  0  0  0  0  0  0  0  0  0  0  0
   23.6150  -13.7820   14.5610 N   0  0  0  0  0  0  0  0  0  0  0  0
   22.9630   -9.8280   18.3040 N   0  0  0  0  0  0  0  0  0  0  0  0
   23.8970  -10.5630   13.1590 O   0  0  0  0  0  1  0  0  0  0  0  0
   21.0030  -10.8490   17.2730 O   0  0  0  0  0  1  0  0  0  0  0  0
   25.9190  -17.9540   16.1370 O   0  0  0  0  0  0  0  0  0  0  0  0
   24.0570  -17.6780   17.5380 O   0  0  0  0  0  1  0  0  0  0  0  0
   25.7170  -12.9220   14.6820 O   0  0  0  0  0  1  0  0  0  0  0  0
  1 19  1  0
  1 63  1  0
  1 66  1  0
  2  3  1  0
  2 11  1  0
  2 30  1  0
  2 63  1  0
  3 16  1  0
  3 31  1  0
  3 32  1  0
  4  5  1  0
  4  8  1  0
  4 34  1  0
  4 64  1  0
  5  6  1  0
  5 35  1  0
  5 36  1  0
  6  7  1  0
  6 15  1  0
  6 37  1  0
  7 65  1  0
  7 67  1  0
  8  9  1  0
  8 39  1  0
  9 10  1  0
  9 40  1  0
  9 41  1  0
 10 68  1  0
 10 69  1  0
 11 64  1  0
 11 70  1  0
 12 13  1  0
 12 42  1  0
 12 43  1  0
 12 68  1  0
 13 44  1  0
 13 45  1  0
 13 46  1  0
 14 15  1  0
 14 47  1  0
 14 48  1  0
 14 65  1  0
 15 49  1  0
 15 50  1  0
 16 17  1  0
 16 18  1  0
 16 51  1  0
 17 18  1  0
 17 52  1  0
 17 53  1  0
 18 54  1  0
 18 55  1  0
 19 20  1  0
 19 56  1  0
 20 24  1  0
 20 57  1  0
 21 22  1  0
 21 26  1  0
 21 27  1  0
 22 23  1  0
 22 58  1  0
 23 24  1  0
 23 59  1  0
 24 25  1  0
 25 26  1  0
 25 60  1  0
 26 61  1  0
 27 28  1  0
 28 62  1  0
 29 63  1  0
 33 64  1  0
 38 65  1  0
M  END
$$$$
