7maw_A_YVA_401
     RDKit          3D

 70 72  0  0  0  0  0  0  0  0999 V2000
  -13.1420   -8.9210   42.8570 C   0  0  0  0  0  3  0  0  0  0  0  0
  -12.8820  -11.3180   43.3960 C   0  0  0  0  0  0  0  0  0  0  0  0
  -13.6010  -12.4330   44.1440 C   0  0  0  0  0  0  0  0  0  0  0  0
  -11.5180  -12.7260   40.0150 C   0  0  0  0  0  0  0  0  0  0  0  0
  -10.4420  -11.9460   39.3070 C   0  0  0  0  0  0  0  0  0  0  0  0
  -11.0150  -10.5290   39.0690 C   0  0  0  0  0  0  0  0  0  0  0  0
  -10.0030   -9.6820   38.4450 C   0  0  0  0  0  3  0  0  0  0  0  0
  -11.2130  -14.2430   40.1300 C   0  0  0  0  0  3  0  0  0  0  0  0
  -12.5980  -14.8900   40.1500 C   0  0  0  0  0  0  0  0  0  0  0  0
  -12.6250  -16.3320   39.6990 C   0  0  0  0  0  3  0  0  0  0  0  0
  -12.8530  -11.6270   41.9190 C   0  0  0  0  0  3  0  0  0  0  0  0
  -14.8630  -16.8350   39.9100 C   0  0  0  0  0  0  0  0  0  0  0  0
  -15.1450  -17.7420   38.6930 C   0  0  0  0  0  0  0  0  0  0  0  0
  -12.1200   -9.1630   37.4030 C   0  0  0  0  0  0  0  0  0  0  0  0
  -12.1990  -10.5420   38.0950 C   0  0  0  0  0  0  0  0  0  0  0  0
  -13.6090  -12.0050   45.6210 C   0  0  0  0  0  0  0  0  0  0  0  0
  -12.2880  -12.3570   46.3010 C   0  0  0  0  0  0  0  0  0  0  0  0
  -13.5740  -13.0970   46.6910 C   0  0  0  0  0  0  0  0  0  0  0  0
  -13.9690   -7.6360   42.9440 C   0  0  0  0  0  3  0  0  0  0  0  0
  -13.3750   -6.5900   43.4600 C   0  0  0  0  0  3  0  0  0  0  0  0
  -15.4520   -2.5320   43.7630 C   0  0  0  0  0  3  0  0  0  0  0  0
  -14.3960   -2.7680   42.6830 C   0  0  0  0  0  3  0  0  0  0  0  0
  -13.7130   -4.1300   42.5870 C   0  0  0  0  0  3  0  0  0  0  0  0
  -14.0920   -5.2390   43.5690 C   0  0  0  0  0  3  0  0  0  0  0  0
  -15.1580   -5.0190   44.6290 C   0  0  0  0  0  3  0  0  0  0  0  0
  -15.8330   -3.6530   44.7230 C   0  0  0  0  0  3  0  0  0  0  0  0
  -16.1620   -1.1690   43.8550 C   0  0  0  0  0  2  0  0  0  0  0  0
  -16.6920   -0.1060   43.9210 C   0  0  0  0  0  2  0  0  0  0  0  0
  -14.4170  -10.0960   43.9260 H   0  0  0  0  0  0  0  0  0  0  0  0
  -12.0190  -11.2330   43.7580 H   0  0  0  0  0  0  0  0  0  0  0  0
  -13.1420  -13.2460   44.0410 H   0  0  0  0  0  0  0  0  0  0  0  0
  -14.4790  -12.5280   43.8250 H   0  0  0  0  0  0  0  0  0  0  0  0
  -11.0840  -12.5810   42.0000 H   0  0  0  0  0  0  0  0  0  0  0  0
  -12.2640  -12.5300   39.4800 H   0  0  0  0  0  0  0  0  0  0  0  0
  -10.2320  -12.3530   38.4870 H   0  0  0  0  0  0  0  0  0  0  0  0
   -9.6710  -11.8990   39.8400 H   0  0  0  0  0  0  0  0  0  0  0  0
  -11.2990  -10.1680   39.8880 H   0  0  0  0  0  0  0  0  0  0  0  0
  -10.3300   -8.2370   36.9140 H   0  0  0  0  0  0  0  0  0  0  0  0
  -10.6510  -14.5710   39.4370 H   0  0  0  0  0  0  0  0  0  0  0  0
  -13.1610  -14.3950   39.5840 H   0  0  0  0  0  0  0  0  0  0  0  0
  -12.9270  -14.8520   41.0290 H   0  0  0  0  0  0  0  0  0  0  0  0
  -15.4820  -17.0090   40.5940 H   0  0  0  0  0  0  0  0  0  0  0  0
  -14.9180  -15.9310   39.6600 H   0  0  0  0  0  0  0  0  0  0  0  0
  -16.0530  -17.6850   38.4640 H   0  0  0  0  0  0  0  0  0  0  0  0
  -14.6200  -17.4630   37.9660 H   0  0  0  0  0  0  0  0  0  0  0  0
  -14.9320  -18.6310   38.9100 H   0  0  0  0  0  0  0  0  0  0  0  0
  -12.4340   -9.2210   36.5200 H   0  0  0  0  0  0  0  0  0  0  0  0
  -12.6120   -8.5250   37.8860 H   0  0  0  0  0  0  0  0  0  0  0  0
  -12.1030  -11.2340   37.4670 H   0  0  0  0  0  0  0  0  0  0  0  0
  -13.0090  -10.6320   38.5610 H   0  0  0  0  0  0  0  0  0  0  0  0
  -14.0860  -11.2460   45.8990 H   0  0  0  0  0  0  0  0  0  0  0  0
  -11.6810  -12.8470   45.7790 H   0  0  0  0  0  0  0  0  0  0  0  0
  -11.9750  -11.7310   46.9270 H   0  0  0  0  0  0  0  0  0  0  0  0
  -13.6470  -13.9780   46.3750 H   0  0  0  0  0  0  0  0  0  0  0  0
  -13.9410  -12.8620   47.5230 H   0  0  0  0  0  0  0  0  0  0  0  0
  -14.8490   -7.6010   42.6450 H   0  0  0  0  0  0  0  0  0  0  0  0
  -12.5010   -6.6670   43.7670 H   0  0  0  0  0  0  0  0  0  0  0  0
  -14.1730   -2.0890   42.0900 H   0  0  0  0  0  0  0  0  0  0  0  0
  -13.0690   -4.2840   41.9350 H   0  0  0  0  0  0  0  0  0  0  0  0
  -15.3950   -5.7040   45.2100 H   0  0  0  0  0  0  0  0  0  0  0  0
  -16.4810   -3.5030   45.3720 H   0  0  0  0  0  0  0  0  0  0  0  0
  -17.0840    0.7190   43.9750 H   0  0  0  0  0  0  0  0  0  0  0  0
  -13.6630  -10.1100   43.4970 N   0  0  0  0  0  0  0  0  0  0  0  0
  -11.6990  -12.3530   41.4310 N   0  0  0  0  0  0  0  0  0  0  0  0
  -10.7100   -8.8330   37.4190 N   0  0  0  0  0  0  0  0  0  0  0  0
  -12.0860   -8.9450   42.2860 O   0  0  0  0  0  1  0  0  0  0  0  0
   -8.8360   -9.6640   38.6820 O   0  0  0  0  0  1  0  0  0  0  0  0
  -13.5600  -17.1400   40.3440 O   0  0  0  0  0  0  0  0  0  0  0  0
  -11.9020  -16.7480   38.8420 O   0  0  0  0  0  1  0  0  0  0  0  0
  -13.6980  -11.3070   41.1680 O   0  0  0  0  0  1  0  0  0  0  0  0
  1 19  1  0
  1 63  1  0
  1 66  1  0
  2  3  1  0
  2 11  1  0
  2 30  1  0
  2 63  1  0
  3 16  1  0
  3 31  1  0
  3 32  1  0
  4  5  1  0
  4  8  1  0
  4 34  1  0
  4 64  1  0
  5  6  1  0
  5 35  1  0
  5 36  1  0
  6  7  1  0
  6 15  1  0
  6 37  1  0
  7 65  1  0
  7 67  1  0
  8  9  1  0
  8 39  1  0
  9 10  1  0
  9 40  1  0
  9 41  1  0
 10 68  1  0
 10 69  1  0
 11 64  1  0
 11 70  1  0
 12 13  1  0
 12 42  1  0
 12 43  1  0
 12 68  1  0
 13 44  1  0
 13 45  1  0
 13 46  1  0
 14 15  1  0
 14 47  1  0
 14 48  1  0
 14 65  1  0
 15 49  1  0
 15 50  1  0
 16 17  1  0
 16 18  1  0
 16 51  1  0
 17 18  1  0
 17 52  1  0
 17 53  1  0
 18 54  1  0
 18 55  1  0
 19 20  1  0
 19 56  1  0
 20 24  1  0
 20 57  1  0
 21 22  1  0
 21 26  1  0
 21 27  1  0
 22 23  1  0
 22 58  1  0
 23 24  1  0
 23 59  1  0
 24 25  1  0
 25 26  1  0
 25 60  1  0
 26 61  1  0
 27 28  1  0
 28 62  1  0
 29 63  1  0
 33 64  1  0
 38 65  1  0
M  END
$$$$
