7max_A_YV7_401
     RDKit          3D

 75 77  0  0  0  0  0  0  0  0999 V2000
   -8.1320  -12.1040   -1.1480 C   0  0  0  0  0  3  0  0  0  0  0  0
   -7.8070  -14.5670   -1.1810 C   0  0  0  0  0  0  0  0  0  0  0  0
   -8.4800  -15.8820   -0.8530 C   0  0  0  0  0  0  0  0  0  0  0  0
   -5.6420  -15.4440   -4.3290 C   0  0  0  0  0  0  0  0  0  0  0  0
   -4.4900  -14.4920   -4.6300 C   0  0  0  0  0  0  0  0  0  0  0  0
   -5.0160  -13.0340   -4.5770 C   0  0  0  0  0  0  0  0  0  0  0  0
   -3.7890  -12.1130   -4.8500 C   0  0  0  0  0  3  0  0  0  0  0  0
   -5.2930  -16.9220   -4.5210 C   0  0  0  0  0  3  0  0  0  0  0  0
   -6.5700  -17.7630   -4.5970 C   0  0  0  0  0  0  0  0  0  0  0  0
   -6.4390  -18.9390   -5.5670 C   0  0  0  0  0  3  0  0  0  0  0  0
   -7.3490  -14.7520   -2.6300 C   0  0  0  0  0  3  0  0  0  0  0  0
   -8.5990  -19.5750   -6.3100 C   0  0  0  0  0  0  0  0  0  0  0  0
   -8.2580  -19.2540   -7.7640 C   0  0  0  0  0  0  0  0  0  0  0  0
   -5.5880  -11.6300   -6.3570 C   0  0  0  0  0  0  0  0  0  0  0  0
   -5.9050  -12.8700   -5.8030 C   0  0  0  0  0  0  0  0  0  0  0  0
  -10.0940  -15.7430    3.3830 C   0  0  0  0  0  3  0  0  0  0  0  0
   -8.6590  -16.1890    3.1450 C   0  0  0  0  0  3  0  0  0  0  0  0
   -8.1100  -16.2290    1.7260 C   0  0  0  0  0  3  0  0  0  0  0  0
   -9.0160  -15.8390    0.5630 C   0  0  0  0  0  3  0  0  0  0  0  0
  -10.4620  -15.4140    0.7960 C   0  0  0  0  0  3  0  0  0  0  0  0
  -11.0060  -15.3590    2.2130 C   0  0  0  0  0  3  0  0  0  0  0  0
   -9.0560  -10.8890   -1.2080 C   0  0  0  0  0  0  0  0  0  0  0  0
   -9.9900  -10.8310   -0.0100 C   0  0  0  0  0  0  0  0  0  0  0  0
   -7.7020  -10.3650    3.9200 C   0  0  0  0  0  3  0  0  0  0  0  0
   -8.2410  -11.7310    3.5040 C   0  0  0  0  0  3  0  0  0  0  0  0
   -9.0040  -11.8830    2.1900 C   0  0  0  0  0  3  0  0  0  0  0  0
   -9.2200  -10.6690    1.2930 C   0  0  0  0  0  3  0  0  0  0  0  0
   -8.6860   -9.3000    1.7090 C   0  0  0  0  0  3  0  0  0  0  0  0
   -7.9220   -9.1480    3.0230 C   0  0  0  0  0  3  0  0  0  0  0  0
  -10.5920  -15.7320    4.6480 F   0  0  0  0  0  0  0  0  0  0  0  0
   -9.5530  -13.5560   -1.2850 H   0  0  0  0  0  0  0  0  0  0  0  0
   -7.0750  -14.4090   -0.6140 H   0  0  0  0  0  0  0  0  0  0  0  0
   -9.1890  -16.0280   -1.4510 H   0  0  0  0  0  0  0  0  0  0  0  0
   -7.8570  -16.5800   -0.9300 H   0  0  0  0  0  0  0  0  0  0  0  0
   -5.4830  -15.4510   -2.2990 H   0  0  0  0  0  0  0  0  0  0  0  0
   -6.3670  -15.2360   -4.8860 H   0  0  0  0  0  0  0  0  0  0  0  0
   -3.8170  -14.6040   -3.9850 H   0  0  0  0  0  0  0  0  0  0  0  0
   -4.1390  -14.6770   -5.4810 H   0  0  0  0  0  0  0  0  0  0  0  0
   -5.4580  -12.8260   -3.7750 H   0  0  0  0  0  0  0  0  0  0  0  0
   -3.6030  -10.6810   -6.2600 H   0  0  0  0  0  0  0  0  0  0  0  0
   -4.7960  -17.0180   -5.3250 H   0  0  0  0  0  0  0  0  0  0  0  0
   -7.2820  -17.2190   -4.8770 H   0  0  0  0  0  0  0  0  0  0  0  0
   -6.7630  -18.0970   -3.7410 H   0  0  0  0  0  0  0  0  0  0  0  0
   -7.4320   -9.8640   -1.0460 H   0  0  0  0  0  0  0  0  0  0  0  0
   -9.2040  -20.2920   -6.2840 H   0  0  0  0  0  0  0  0  0  0  0  0
   -8.9920  -18.8220   -5.9090 H   0  0  0  0  0  0  0  0  0  0  0  0
   -9.0320  -19.3310   -8.2910 H   0  0  0  0  0  0  0  0  0  0  0  0
   -7.9250  -18.3780   -7.8230 H   0  0  0  0  0  0  0  0  0  0  0  0
   -7.6100  -19.8580   -8.0730 H   0  0  0  0  0  0  0  0  0  0  0  0
   -6.1770  -10.9750   -6.0320 H   0  0  0  0  0  0  0  0  0  0  0  0
   -5.6380  -11.6770   -7.2930 H   0  0  0  0  0  0  0  0  0  0  0  0
   -5.7270  -13.5490   -6.4230 H   0  0  0  0  0  0  0  0  0  0  0  0
   -6.8090  -12.8870   -5.5490 H   0  0  0  0  0  0  0  0  0  0  0  0
   -8.1170  -16.4230    3.8620 H   0  0  0  0  0  0  0  0  0  0  0  0
   -7.2330  -16.4920    1.5700 H   0  0  0  0  0  0  0  0  0  0  0  0
  -11.0000  -15.1730    0.0780 H   0  0  0  0  0  0  0  0  0  0  0  0
  -11.8860  -15.1040    2.3680 H   0  0  0  0  0  0  0  0  0  0  0  0
   -9.5770  -10.9500   -1.9870 H   0  0  0  0  0  0  0  0  0  0  0  0
   -8.2440   -9.3900   -2.1070 H   0  0  0  0  0  0  0  0  0  0  0  0
  -10.5750  -10.1040   -0.1130 H   0  0  0  0  0  0  0  0  0  0  0  0
  -10.4910  -11.6240    0.0270 H   0  0  0  0  0  0  0  0  0  0  0  0
   -7.2370  -10.2740    4.7190 H   0  0  0  0  0  0  0  0  0  0  0  0
   -8.1050  -12.4700    4.0500 H   0  0  0  0  0  0  0  0  0  0  0  0
   -9.3330  -12.7140    1.9360 H   0  0  0  0  0  0  0  0  0  0  0  0
   -8.8220   -8.5620    1.1620 H   0  0  0  0  0  0  0  0  0  0  0  0
   -7.5930   -8.3170    3.2770 H   0  0  0  0  0  0  0  0  0  0  0  0
   -8.6960  -13.4410   -1.2110 N   0  0  0  0  0  0  0  0  0  0  0  0
   -6.0370  -15.2590   -2.9390 N   0  0  0  0  0  0  0  0  0  0  0  0
   -4.1160  -11.2910   -5.9170 N   0  0  0  0  0  0  0  0  0  0  0  0
   -8.2450   -9.6830   -1.2900 N   0  0  0  0  0  0  0  0  0  0  0  0
   -6.9560  -11.9610   -1.0630 O   0  0  0  0  0  1  0  0  0  0  0  0
   -2.7500  -12.1160   -4.2730 O   0  0  0  0  0  1  0  0  0  0  0  0
   -7.4370  -19.9220   -5.6060 O   0  0  0  0  0  0  0  0  0  0  0  0
   -5.4930  -19.0280   -6.2750 O   0  0  0  0  0  1  0  0  0  0  0  0
   -8.1220  -14.5010   -3.5010 O   0  0  0  0  0  1  0  0  0  0  0  0
  1 22  1  0
  1 67  1  0
  1 71  1  0
  2  3  1  0
  2 11  1  0
  2 32  1  0
  2 67  1  0
  3 19  1  0
  3 33  1  0
  3 34  1  0
  4  5  1  0
  4  8  1  0
  4 36  1  0
  4 68  1  0
  5  6  1  0
  5 37  1  0
  5 38  1  0
  6  7  1  0
  6 15  1  0
  6 39  1  0
  7 69  1  0
  7 72  1  0
  8  9  1  0
  8 41  1  0
  9 10  1  0
  9 42  1  0
  9 43  1  0
 10 73  1  0
 10 74  1  0
 11 68  1  0
 11 75  1  0
 12 13  1  0
 12 45  1  0
 12 46  1  0
 12 73  1  0
 13 47  1  0
 13 48  1  0
 13 49  1  0
 14 15  1  0
 14 50  1  0
 14 51  1  0
 14 69  1  0
 15 52  1  0
 15 53  1  0
 16 17  1  0
 16 21  1  0
 16 30  1  0
 17 18  1  0
 17 54  1  0
 18 19  1  0
 18 55  1  0
 19 20  1  0
 20 21  1  0
 20 56  1  0
 21 57  1  0
 22 23  1  0
 22 58  1  0
 22 70  1  0
 23 27  1  0
 23 60  1  0
 23 61  1  0
 24 25  1  0
 24 29  1  0
 24 62  1  0
 25 26  1  0
 25 63  1  0
 26 27  1  0
 26 64  1  0
 27 28  1  0
 28 29  1  0
 28 65  1  0
 29 66  1  0
 31 67  1  0
 35 68  1  0
 40 69  1  0
 44 70  1  0
 59 70  1  0
M  END
$$$$
