7max_B_YV7_401
     RDKit          3D

 75 77  0  0  0  0  0  0  0  0999 V2000
   36.6590   -8.2970  -21.5830 C   0  0  0  0  0  3  0  0  0  0  0  0
   36.1010  -10.5780  -22.3680 C   0  0  0  0  0  0  0  0  0  0  0  0
   36.5620  -11.8590  -23.0190 C   0  0  0  0  0  0  0  0  0  0  0  0
   34.0020  -12.3760  -19.6770 C   0  0  0  0  0  0  0  0  0  0  0  0
   32.8380  -11.5740  -19.0590 C   0  0  0  0  0  0  0  0  0  0  0  0
   33.3270  -10.3060  -18.4050 C   0  0  0  0  0  0  0  0  0  0  0  0
   32.1760   -9.5710  -17.6440 C   0  0  0  0  0  3  0  0  0  0  0  0
   33.7160  -13.8530  -20.0800 C   0  0  0  0  0  3  0  0  0  0  0  0
   35.0890  -14.6280  -20.1640 C   0  0  0  0  0  0  0  0  0  0  0  0
   35.0020  -16.1090  -19.7570 C   0  0  0  0  0  3  0  0  0  0  0  0
   35.7130  -11.1630  -21.0390 C   0  0  0  0  0  3  0  0  0  0  0  0
   36.8180  -17.2420  -18.8830 C   0  0  0  0  0  0  0  0  0  0  0  0
   37.9340  -18.1950  -19.2790 C   0  0  0  0  0  0  0  0  0  0  0  0
   34.1370   -9.5420  -16.3210 C   0  0  0  0  0  0  0  0  0  0  0  0
   34.2850  -10.5570  -17.2700 C   0  0  0  0  0  0  0  0  0  0  0  0
   39.2550  -11.3760  -26.5880 C   0  0  0  0  0  3  0  0  0  0  0  0
   37.7480  -11.3360  -26.7720 C   0  0  0  0  0  3  0  0  0  0  0  0
   36.8260  -11.4860  -25.5840 C   0  0  0  0  0  3  0  0  0  0  0  0
   37.4430  -11.6750  -24.2160 C   0  0  0  0  0  3  0  0  0  0  0  0
   38.9420  -11.7270  -24.0140 C   0  0  0  0  0  3  0  0  0  0  0  0
   39.8510  -11.5710  -25.2040 C   0  0  0  0  0  3  0  0  0  0  0  0
   37.6060   -7.1830  -21.1930 C   0  0  0  0  0  0  0  0  0  0  0  0
   38.4690   -6.6970  -22.3560 C   0  0  0  0  0  0  0  0  0  0  0  0
   36.0870   -4.7410  -25.7010 C   0  0  0  0  0  3  0  0  0  0  0  0
   36.4030   -3.9550  -24.4520 C   0  0  0  0  0  3  0  0  0  0  0  0
   37.2030   -4.6060  -23.3370 C   0  0  0  0  0  3  0  0  0  0  0  0
   37.6600   -6.0530  -23.4700 C   0  0  0  0  0  3  0  0  0  0  0  0
   37.3380   -6.8520  -24.7260 C   0  0  0  0  0  3  0  0  0  0  0  0
   36.5480   -6.1880  -25.8420 C   0  0  0  0  0  3  0  0  0  0  0  0
   40.0690  -11.2480  -27.6620 F   0  0  0  0  0  0  0  0  0  0  0  0
   37.9420   -9.7560  -22.1610 H   0  0  0  0  0  0  0  0  0  0  0  0
   35.3570  -10.2120  -22.8100 H   0  0  0  0  0  0  0  0  0  0  0  0
   37.0320  -12.3630  -22.3810 H   0  0  0  0  0  0  0  0  0  0  0  0
   35.8040  -12.3460  -23.2820 H   0  0  0  0  0  0  0  0  0  0  0  0
   33.8820  -11.7600  -21.5850 H   0  0  0  0  0  0  0  0  0  0  0  0
   34.7220  -12.3680  -19.0770 H   0  0  0  0  0  0  0  0  0  0  0  0
   32.2250  -11.3540  -19.7350 H   0  0  0  0  0  0  0  0  0  0  0  0
   32.4080  -12.1050  -18.4150 H   0  0  0  0  0  0  0  0  0  0  0  0
   33.7160   -9.7330  -19.0390 H   0  0  0  0  0  0  0  0  0  0  0  0
   32.1910   -8.6910  -15.8470 H   0  0  0  0  0  0  0  0  0  0  0  0
   33.1650  -14.2580  -19.4200 H   0  0  0  0  0  0  0  0  0  0  0  0
   35.7130  -14.2050  -19.6040 H   0  0  0  0  0  0  0  0  0  0  0  0
   35.4020  -14.5810  -21.0480 H   0  0  0  0  0  0  0  0  0  0  0  0
   35.9420   -6.2500  -20.9840 H   0  0  0  0  0  0  0  0  0  0  0  0
   37.1850  -16.4510  -18.5330 H   0  0  0  0  0  0  0  0  0  0  0  0
   36.2670  -17.6480  -18.2400 H   0  0  0  0  0  0  0  0  0  0  0  0
   37.7420  -18.5700  -20.1180 H   0  0  0  0  0  0  0  0  0  0  0  0
   38.7460  -17.7250  -19.3250 H   0  0  0  0  0  0  0  0  0  0  0  0
   38.0040  -18.8780  -18.6390 H   0  0  0  0  0  0  0  0  0  0  0  0
   34.6950   -8.8160  -16.5280 H   0  0  0  0  0  0  0  0  0  0  0  0
   34.3190   -9.8690  -15.4600 H   0  0  0  0  0  0  0  0  0  0  0  0
   35.1660  -10.5570  -17.5960 H   0  0  0  0  0  0  0  0  0  0  0  0
   34.0890  -11.3850  -16.8750 H   0  0  0  0  0  0  0  0  0  0  0  0
   37.3900  -11.2160  -27.6210 H   0  0  0  0  0  0  0  0  0  0  0  0
   35.9030  -11.4670  -25.6920 H   0  0  0  0  0  0  0  0  0  0  0  0
   39.2970  -11.8510  -23.1650 H   0  0  0  0  0  0  0  0  0  0  0  0
   40.7730  -11.5990  -25.0930 H   0  0  0  0  0  0  0  0  0  0  0  0
   38.1680   -7.4880  -20.5050 H   0  0  0  0  0  0  0  0  0  0  0  0
   36.7250   -6.1940  -19.8040 H   0  0  0  0  0  0  0  0  0  0  0  0
   38.9390   -7.4290  -22.7090 H   0  0  0  0  0  0  0  0  0  0  0  0
   39.0870   -6.0700  -22.0310 H   0  0  0  0  0  0  0  0  0  0  0  0
   35.5960   -4.3450  -26.3830 H   0  0  0  0  0  0  0  0  0  0  0  0
   36.1220   -3.0730  -24.3720 H   0  0  0  0  0  0  0  0  0  0  0  0
   37.4040   -4.1250  -22.5680 H   0  0  0  0  0  0  0  0  0  0  0  0
   37.6260   -7.7310  -24.8120 H   0  0  0  0  0  0  0  0  0  0  0  0
   36.3410   -6.6670  -26.6110 H   0  0  0  0  0  0  0  0  0  0  0  0
   37.0970   -9.5790  -22.0740 N   0  0  0  0  0  0  0  0  0  0  0  0
   34.4190  -11.7550  -20.9030 N   0  0  0  0  0  0  0  0  0  0  0  0
   32.6500   -9.1300  -16.4380 N   0  0  0  0  0  0  0  0  0  0  0  0
   36.7440   -6.1450  -20.6700 N   0  0  0  0  0  0  0  0  0  0  0  0
   35.5260   -8.0840  -21.4460 O   0  0  0  0  0  1  0  0  0  0  0  0
   31.0970   -9.3890  -17.9990 O   0  0  0  0  0  1  0  0  0  0  0  0
   36.0730  -16.9510  -20.0250 O   0  0  0  0  0  0  0  0  0  0  0  0
   34.0740  -16.5860  -19.2100 O   0  0  0  0  0  1  0  0  0  0  0  0
   36.4950  -11.1530  -20.1650 O   0  0  0  0  0  1  0  0  0  0  0  0
  1 22  1  0
  1 67  1  0
  1 71  1  0
  2  3  1  0
  2 11  1  0
  2 32  1  0
  2 67  1  0
  3 19  1  0
  3 33  1  0
  3 34  1  0
  4  5  1  0
  4  8  1  0
  4 36  1  0
  4 68  1  0
  5  6  1  0
  5 37  1  0
  5 38  1  0
  6  7  1  0
  6 15  1  0
  6 39  1  0
  7 69  1  0
  7 72  1  0
  8  9  1  0
  8 41  1  0
  9 10  1  0
  9 42  1  0
  9 43  1  0
 10 73  1  0
 10 74  1  0
 11 68  1  0
 11 75  1  0
 12 13  1  0
 12 45  1  0
 12 46  1  0
 12 73  1  0
 13 47  1  0
 13 48  1  0
 13 49  1  0
 14 15  1  0
 14 50  1  0
 14 51  1  0
 14 69  1  0
 15 52  1  0
 15 53  1  0
 16 17  1  0
 16 21  1  0
 16 30  1  0
 17 18  1  0
 17 54  1  0
 18 19  1  0
 18 55  1  0
 19 20  1  0
 20 21  1  0
 20 56  1  0
 21 57  1  0
 22 23  1  0
 22 58  1  0
 22 70  1  0
 23 27  1  0
 23 60  1  0
 23 61  1  0
 24 25  1  0
 24 29  1  0
 24 62  1  0
 25 26  1  0
 25 63  1  0
 26 27  1  0
 26 64  1  0
 27 28  1  0
 28 29  1  0
 28 65  1  0
 29 66  1  0
 31 67  1  0
 35 68  1  0
 40 69  1  0
 44 70  1  0
 59 70  1  0
M  END
$$$$
