7maz_A_YVD_401
     RDKit          3D

150350  0  0  0  0  0  0  0  0999 V2000
  -12.6000   -9.7180   21.5190 C   0  0  0  0  0  7  0  0  0  0  0  0
  -12.5960   -9.7320   21.4590 C   0  0  0  0  0  7  0  0  0  0  0  0
  -12.3170  -12.1740   22.0740 C   0  0  0  0  0  9  0  0  0  0  0  0
  -12.2110  -12.2010   21.9680 C   0  0  0  0  0  9  0  0  0  0  0  0
  -12.9920  -13.4040   22.6710 C   0  0  0  0  0  9  0  0  0  0  0  0
  -12.8510  -13.4290   22.6140 C   0  0  0  0  0  9  0  0  0  0  0  0
  -10.1750  -13.5260   19.2180 C   0  0  0  0  0  8  0  0  0  0  0  0
  -10.1570  -13.8000   19.0620 C   0  0  0  0  0  9  0  0  0  0  0  0
   -8.9240  -12.9570   18.5370 C   0  0  0  0  0  8  0  0  0  0  0  0
   -8.8880  -12.7270   18.7790 C   0  0  0  0  0  8  0  0  0  0  0  0
   -9.2850  -11.4160   18.2790 C   0  0  0  0  0  9  0  0  0  0  0  0
   -9.2850  -11.2620   18.2980 C   0  0  0  0  0  9  0  0  0  0  0  0
   -8.1960  -10.6570   17.6520 C   0  0  0  0  0  7  0  0  0  0  0  0
   -8.1540  -10.5640   17.7010 C   0  0  0  0  0  7  0  0  0  0  0  0
  -10.0190  -15.0150   19.4770 C   0  0  0  0  0  6  0  0  0  0  0  0
   -9.9380  -15.3360   19.3240 C   0  0  0  0  0  6  0  0  0  0  0  0
  -11.4040  -15.8070   19.5140 C   0  0  0  0  0  8  0  0  0  0  0  0
  -11.3200  -16.0700   19.6530 C   0  0  0  0  0  8  0  0  0  0  0  0
  -12.5220  -15.7240   18.7200 C   0  0  0  0  0  5  0  0  0  0  0  0
  -11.3150  -17.2640   18.9210 C   0  0  0  0  0  5  0  0  0  0  0  0
  -11.9370  -12.5750   20.6730 C   0  0  0  0  0  7  0  0  0  0  0  0
  -11.8730  -12.6500   20.5590 C   0  0  0  0  0  7  0  0  0  0  0  0
  -14.9280  -15.4700   18.6200 C   0  0  0  0  0  0  0  0  0  0  0  0
  -13.1770  -18.4940   18.1680 C   0  0  0  0  0  0  0  0  0  0  0  0
  -15.1630  -14.2170   17.7420 C   0  0  0  0  0  0  0  0  0  0  0  0
  -14.4960  -17.7160   18.3870 C   0  0  0  0  0  0  0  0  0  0  0  0
  -10.0300  -10.2560   16.1930 C   0  0  0  0  0  9  0  0  0  0  0  0
   -9.9260  -10.1460   16.1860 C   0  0  0  0  0  9  0  0  0  0  0  0
  -10.4370  -11.2320   17.3180 C   0  0  0  0  0  9  0  0  0  0  0  0
  -10.2860  -11.2710   17.1730 C   0  0  0  0  0  9  0  0  0  0  0  0
  -13.3850  -12.0530   26.8510 C   0  0  0  0  0  7  0  0  0  0  0  0
  -13.2700  -12.0010   26.8950 C   0  0  0  0  0  7  0  0  0  0  0  0
  -14.5630  -11.9580   25.9090 C   0  0  0  0  0  7  0  0  0  0  0  0
  -14.4690  -11.8370   25.9980 C   0  0  0  0  0  7  0  0  0  0  0  0
  -14.4000  -12.4280   24.4850 C   0  0  0  0  0  7  0  0  0  0  0  0
  -14.3960  -12.3160   24.5760 C   0  0  0  0  0  7  0  0  0  0  0  0
  -13.1070  -12.9610   24.1140 C   0  0  0  0  0  7  0  0  0  0  0  0
  -13.0560  -12.9870   24.0570 C   0  0  0  0  0  7  0  0  0  0  0  0
  -11.8970  -13.1130   25.0220 C   0  0  0  0  0  7  0  0  0  0  0  0
  -11.8770  -13.0690   25.0150 C   0  0  0  0  0  7  0  0  0  0  0  0
  -12.0360  -12.5990   26.4430 C   0  0  0  0  0  7  0  0  0  0  0  0
  -11.9710  -12.6280   26.4490 C   0  0  0  0  0  7  0  0  0  0  0  0
  -13.4600   -8.4760   21.3060 C   0  0  0  0  0  9  0  0  0  0  0  0
  -13.4280   -8.4510   21.3070 C   0  0  0  0  0  9  0  0  0  0  0  0
  -14.2290   -8.0960   22.5880 C   0  0  0  0  0  9  0  0  0  0  0  0
  -14.2170   -8.0320   22.5600 C   0  0  0  0  0  9  0  0  0  0  0  0
  -11.6370   -6.8740   26.1470 C   0  0  0  0  0  7  0  0  0  0  0  0
  -11.6250   -6.9030   26.1660 C   0  0  0  0  0  7  0  0  0  0  0  0
  -11.9660   -5.8140   25.1000 C   0  0  0  0  0  7  0  0  0  0  0  0
  -11.9510   -5.8550   25.1020 C   0  0  0  0  0  7  0  0  0  0  0  0
  -12.8230   -6.1910   23.8990 C   0  0  0  0  0  7  0  0  0  0  0  0
  -12.8170   -6.2440   23.9080 C   0  0  0  0  0  7  0  0  0  0  0  0
  -13.3350   -7.6720   23.7800 C   0  0  0  0  0  7  0  0  0  0  0  0
  -13.3310   -7.6180   23.7560 C   0  0  0  0  0  7  0  0  0  0  0  0
  -13.0070   -8.7160   24.8570 C   0  0  0  0  0  7  0  0  0  0  0  0
  -13.0000   -8.6730   24.8160 C   0  0  0  0  0  7  0  0  0  0  0  0
  -12.1520   -8.2970   26.0140 C   0  0  0  0  0  7  0  0  0  0  0  0
  -12.1510   -8.3260   26.0500 C   0  0  0  0  0  7  0  0  0  0  0  0
  -13.5570  -11.6220   28.0920 F   0  0  0  0  0  3  0  0  0  0  0  0
  -13.3900  -11.5450   28.1310 F   0  0  0  0  0  3  0  0  0  0  0  0
  -10.8820   -6.5260   27.1890 F   0  0  0  0  0  3  0  0  0  0  0  0
  -10.8640   -6.5460   27.2060 F   0  0  0  0  0  3  0  0  0  0  0  0
  -14.0200  -11.0750   22.0720 H   0  0  0  0  0  3  0  0  0  0  0  0
  -13.9450  -11.1440   22.0680 H   0  0  0  0  0  3  0  0  0  0  0  0
  -11.5470  -11.9530   22.5630 H   0  0  0  0  0  3  0  0  0  0  0  0
  -11.4260  -11.9650   22.4270 H   0  0  0  0  0  3  0  0  0  0  0  0
  -12.4460  -14.1640   22.5920 H   0  0  0  0  0  3  0  0  0  0  0  0
  -12.2710  -14.1660   22.5730 H   0  0  0  0  0  3  0  0  0  0  0  0
  -13.8380  -13.5470   22.2900 H   0  0  0  0  0  3  0  0  0  0  0  0
  -13.6740  -13.6280   22.2070 H   0  0  0  0  0  3  0  0  0  0  0  0
  -10.0650  -13.1740   21.1980 H   0  0  0  0  0  3  0  0  0  0  0  0
  -10.0430  -13.3890   21.0360 H   0  0  0  0  0  3  0  0  0  0  0  0
  -10.8660  -13.6960   18.4570 H   0  0  0  0  0  3  0  0  0  0  0  0
  -10.8660  -13.3900   18.5980 H   0  0  0  0  0  3  0  0  0  0  0  0
   -8.2980  -12.6650   19.5070 H   0  0  0  0  0  2  0  0  0  0  0  0
   -8.2350  -13.0030   19.1730 H   0  0  0  0  0  3  0  0  0  0  0  0
   -8.6190  -13.3350   17.7330 H   0  0  0  0  0  2  0  0  0  0  0  0
   -8.4650  -13.1820   18.0750 H   0  0  0  0  0  3  0  0  0  0  0  0
   -9.6210  -10.7640   19.0190 H   0  0  0  0  0  3  0  0  0  0  0  0
   -9.5050  -11.0110   19.0970 H   0  0  0  0  0  3  0  0  0  0  0  0
   -8.1450   -9.4550   15.9090 H   0  0  0  0  0  3  0  0  0  0  0  0
   -8.0130   -9.4150   15.9330 H   0  0  0  0  0  3  0  0  0  0  0  0
   -9.5390  -15.7370   18.5600 H   0  0  0  0  0  2  0  0  0  0  0  0
   -9.4490  -15.3970   18.8190 H   0  0  0  0  0  3  0  0  0  0  0  0
  -11.6930  -15.8640   20.4060 H   0  0  0  0  0  3  0  0  0  0  0  0
  -11.1750  -16.9970   19.6090 H   0  0  0  0  0  2  0  0  0  0  0  0
  -12.0410  -15.3230   19.0230 H   0  0  0  0  0  2  0  0  0  0  0  0
  -11.5640  -15.8530   20.5330 H   0  0  0  0  0  3  0  0  0  0  0  0
  -15.6420  -15.5660   19.2220 H   0  0  0  0  0  0  0  0  0  0  0  0
  -13.3530  -19.4160   18.1490 H   0  0  0  0  0  0  0  0  0  0  0  0
  -14.8800  -16.2300   18.0710 H   0  0  0  0  0  0  0  0  0  0  0  0
  -12.7840  -18.2300   17.3570 H   0  0  0  0  0  0  0  0  0  0  0  0
  -14.8120  -17.8740   19.2570 H   0  0  0  0  0  0  0  0  0  0  0  0
  -14.5600  -14.2230   17.0230 H   0  0  0  0  0  0  0  0  0  0  0  0
  -16.0430  -14.2250   17.4140 H   0  0  0  0  0  0  0  0  0  0  0  0
  -14.3400  -16.7970   18.2720 H   0  0  0  0  0  0  0  0  0  0  0  0
  -15.1370  -18.0040   17.7640 H   0  0  0  0  0  0  0  0  0  0  0  0
  -15.0280  -13.4440   18.2570 H   0  0  0  0  0  0  0  0  0  0  0  0
  -10.5420   -9.4700   16.2460 H   0  0  0  0  0  3  0  0  0  0  0  0
  -10.4390   -9.3800   16.3610 H   0  0  0  0  0  3  0  0  0  0  0  0
  -10.1410  -10.6650   15.3550 H   0  0  0  0  0  3  0  0  0  0  0  0
  -10.0490  -10.4350   15.3010 H   0  0  0  0  0  3  0  0  0  0  0  0
  -11.1750  -10.8820   17.7810 H   0  0  0  0  0  3  0  0  0  0  0  0
  -11.1470  -11.1240   17.5170 H   0  0  0  0  0  3  0  0  0  0  0  0
  -10.6630  -12.0610   16.9390 H   0  0  0  0  0  3  0  0  0  0  0  0
  -10.2530  -12.0980   16.7310 H   0  0  0  0  0  3  0  0  0  0  0  0
  -15.3750  -11.6140   26.2020 H   0  0  0  0  0  3  0  0  0  0  0  0
  -15.2450  -11.4400   26.3200 H   0  0  0  0  0  3  0  0  0  0  0  0
  -15.1180  -12.2200   23.9990 H   0  0  0  0  0  3  0  0  0  0  0  0
  -15.1050  -12.3740   23.8830 H   0  0  0  0  0  3  0  0  0  0  0  0
  -11.1160  -13.4980   24.6990 H   0  0  0  0  0  3  0  0  0  0  0  0
  -11.0610  -13.4040   24.7220 H   0  0  0  0  0  3  0  0  0  0  0  0
  -11.3310  -12.6430   27.0460 H   0  0  0  0  0  3  0  0  0  0  0  0
  -11.2500  -12.7130   27.0280 H   0  0  0  0  0  3  0  0  0  0  0  0
  -14.0830   -8.6270   20.6200 H   0  0  0  0  0  3  0  0  0  0  0  0
  -14.0380   -8.6080   20.6110 H   0  0  0  0  0  3  0  0  0  0  0  0
  -12.9300   -6.6700   20.9810 H   0  0  0  0  0  3  0  0  0  0  0  0
  -12.8510   -6.6630   20.9800 H   0  0  0  0  0  3  0  0  0  0  0  0
  -11.8300   -7.4820   21.3540 H   0  0  0  0  0  3  0  0  0  0  0  0
  -11.7720   -7.5050   21.3480 H   0  0  0  0  0  3  0  0  0  0  0  0
  -14.7580   -8.7520   22.8260 H   0  0  0  0  0  3  0  0  0  0  0  0
  -14.7450   -8.8340   22.8540 H   0  0  0  0  0  3  0  0  0  0  0  0
  -14.8090   -7.3860   22.3860 H   0  0  0  0  0  3  0  0  0  0  0  0
  -14.7710   -7.3080   22.3350 H   0  0  0  0  0  3  0  0  0  0  0  0
  -11.6450   -4.9470   25.1930 H   0  0  0  0  0  3  0  0  0  0  0  0
  -11.6260   -4.9880   25.1820 H   0  0  0  0  0  3  0  0  0  0  0  0
  -13.0300   -5.5540   23.2550 H   0  0  0  0  0  3  0  0  0  0  0  0
  -13.0200   -5.6150   23.2560 H   0  0  0  0  0  3  0  0  0  0  0  0
  -13.3320   -9.5830   24.7810 H   0  0  0  0  0  3  0  0  0  0  0  0
  -13.3210   -9.5400   24.7260 H   0  0  0  0  0  3  0  0  0  0  0  0
  -11.9420   -8.9550   26.7010 H   0  0  0  0  0  3  0  0  0  0  0  0
  -11.9400   -8.9330   26.6570 H   0  0  0  0  0  3  0  0  0  0  0  0
  -13.1670  -11.0070   21.9280 N   0  0  0  0  0  7  0  0  0  0  0  0
  -13.1040  -11.0500   21.8760 N   0  0  0  0  0  7  0  0  0  0  0  0
  -10.5910  -13.0900   20.5120 N   0  0  0  0  0  7  0  0  0  0  0  0
  -10.5670  -13.2800   20.3530 N   0  0  0  0  0  7  0  0  0  0  0  0
   -8.6400   -9.9560   16.4160 N   0  0  0  0  0  7  0  0  0  0  0  0
   -8.5380   -9.8860   16.4390 N   0  0  0  0  0  7  0  0  0  0  0  0
  -12.5550   -7.4460   20.8790 N   0  0  0  0  0  7  0  0  0  0  0  0
  -12.4980   -7.4490   20.8760 N   0  0  0  0  0  7  0  0  0  0  0  0
  -11.4700   -9.6470   21.1930 O   0  0  0  0  0  3  0  0  0  0  0  0
  -11.4630   -9.6670   21.3150 O   0  0  0  0  0  3  0  0  0  0  0  0
   -7.1110  -10.5390   18.0350 O   0  0  0  0  0  3  0  0  0  0  0  0
   -7.0870  -10.4850   18.1210 O   0  0  0  0  0  3  0  0  0  0  0  0
  -13.7300  -15.3390   19.3390 O   0  0  0  0  0  0  0  0  0  0  0  0
  -12.3130  -18.2010   19.2300 O   0  0  0  0  0  0  0  0  0  0  0  0
  -12.4140  -15.7560   17.5520 O   0  0  0  0  0  1  0  0  0  0  0  0
  -10.4420  -17.6270   18.2200 O   0  0  0  0  0  1  0  0  0  0  0  0
  -12.6960  -12.4540   19.7960 O   0  0  0  0  0  3  0  0  0  0  0  0
  -12.6470  -12.4910   19.7040 O   0  0  0  0  0  3  0  0  0  0  0  0
  1  2  1  0
  1 43  1  0
  1 44  1  0
  1133  1  0
  1134  1  0
  1141  1  0
  1142  1  0
  2 43  1  0
  2 44  1  0
  2133  1  0
  2134  1  0
  2141  1  0
  2142  1  0
  3  4  1  0
  3  5  1  0
  3  6  1  0
  3 21  1  0
  3 22  1  0
  3 65  1  0
  3 66  1  0
  3133  1  0
  3134  1  0
  4  5  1  0
  4  6  1  0
  4 21  1  0
  4 22  1  0
  4 65  1  0
  4 66  1  0
  4133  1  0
  4134  1  0
  5  6  1  0
  5 37  1  0
  5 38  1  0
  5 67  1  0
  5 68  1  0
  5 69  1  0
  5 70  1  0
  6 37  1  0
  6 38  1  0
  6 67  1  0
  6 68  1  0
  6 69  1  0
  6 70  1  0
  7  8  1  0
  7  9  1  0
  7 10  1  0
  7 15  1  0
  7 73  1  0
  7 74  1  0
  7135  1  0
  7136  1  0
  8  9  1  0
  8 10  1  0
  8 15  1  0
  8 16  1  0
  8 73  1  0
  8 74  1  0
  8135  1  0
  8136  1  0
  9 10  1  0
  9 11  1  0
  9 12  1  0
  9 76  1  0
  9 77  1  0
  9 78  1  0
 10 11  1  0
 10 12  1  0
 10 75  1  0
 10 76  1  0
 10 78  1  0
 11 12  1  0
 11 13  1  0
 11 14  1  0
 11 29  1  0
 11 30  1  0
 11 79  1  0
 11 80  1  0
 12 13  1  0
 12 14  1  0
 12 29  1  0
 12 30  1  0
 12 79  1  0
 12 80  1  0
 13 14  1  0
 13137  1  0
 13138  1  0
 13143  1  0
 13144  1  0
 14137  1  0
 14138  1  0
 14143  1  0
 14144  1  0
 15 16  1  0
 15 17  1  0
 15 18  1  0
 15 84  1  0
 16 17  1  0
 16 18  1  0
 16 83  1  0
 16 84  1  0
 17 18  1  0
 17 19  1  0
 17 20  1  0
 17 85  1  0
 17 87  1  0
 17 88  1  0
 18 19  1  0
 18 20  1  0
 18 85  1  0
 18 86  1  0
 18 88  1  0
 19 87  1  0
 19145  1  0
 19147  1  0
 20 86  1  0
 20146  1  0
 20148  1  0
 21 22  1  0
 21135  1  0
 21136  1  0
 21149  1  0
 21150  1  0
 22135  1  0
 22136  1  0
 22149  1  0
 22150  1  0
 23 25  1  0
 23 89  1  0
 23 91  1  0
 23145  1  0
 24 26  1  0
 24 90  1  0
 24 92  1  0
 24146  1  0
 25 94  1  0
 25 95  1  0
 25 98  1  0
 26 93  1  0
 26 96  1  0
 26 97  1  0
 27 28  1  0
 27 29  1  0
 27 30  1  0
 27 99  1  0
 27100  1  0
 27101  1  0
 27102  1  0
 27137  1  0
 27138  1  0
 28 29  1  0
 28 30  1  0
 28 99  1  0
 28100  1  0
 28101  1  0
 28102  1  0
 28137  1  0
 28138  1  0
 29 30  1  0
 29103  1  0
 29104  1  0
 29105  1  0
 29106  1  0
 30103  1  0
 30104  1  0
 30105  1  0
 30106  1  0
 31 32  1  0
 31 33  1  0
 31 34  1  0
 31 41  1  0
 31 42  1  0
 31 59  1  0
 31 60  1  0
 32 33  1  0
 32 34  1  0
 32 41  1  0
 32 42  1  0
 32 59  1  0
 32 60  1  0
 33 34  1  0
 33 35  1  0
 33 36  1  0
 33107  1  0
 33108  1  0
 34 35  1  0
 34 36  1  0
 34107  1  0
 34108  1  0
 35 36  1  0
 35 37  1  0
 35 38  1  0
 35109  1  0
 35110  1  0
 36 37  1  0
 36 38  1  0
 36109  1  0
 36110  1  0
 37 38  1  0
 37 39  1  0
 37 40  1  0
 38 39  1  0
 38 40  1  0
 39 40  1  0
 39 41  1  0
 39 42  1  0
 39111  1  0
 39112  1  0
 40 41  1  0
 40 42  1  0
 40111  1  0
 40112  1  0
 41 42  1  0
 41113  1  0
 41114  1  0
 42113  1  0
 42114  1  0
 43 44  1  0
 43 45  1  0
 43 46  1  0
 43115  1  0
 43116  1  0
 43139  1  0
 43140  1  0
 44 45  1  0
 44 46  1  0
 44115  1  0
 44116  1  0
 44139  1  0
 44140  1  0
 45 46  1  0
 45 53  1  0
 45 54  1  0
 45121  1  0
 45122  1  0
 45123  1  0
 45124  1  0
 46 53  1  0
 46 54  1  0
 46121  1  0
 46122  1  0
 46123  1  0
 46124  1  0
 47 48  1  0
 47 49  1  0
 47 50  1  0
 47 57  1  0
 47 58  1  0
 47 61  1  0
 47 62  1  0
 48 49  1  0
 48 50  1  0
 48 57  1  0
 48 58  1  0
 48 61  1  0
 48 62  1  0
 49 50  1  0
 49 51  1  0
 49 52  1  0
 49125  1  0
 49126  1  0
 50 51  1  0
 50 52  1  0
 50125  1  0
 50126  1  0
 51 52  1  0
 51 53  1  0
 51 54  1  0
 51127  1  0
 51128  1  0
 52 53  1  0
 52 54  1  0
 52127  1  0
 52128  1  0
 53 54  1  0
 53 55  1  0
 53 56  1  0
 54 55  1  0
 54 56  1  0
 55 56  1  0
 55 57  1  0
 55 58  1  0
 55129  1  0
 55130  1  0
 56 57  1  0
 56 58  1  0
 56129  1  0
 56130  1  0
 57 58  1  0
 57131  1  0
 57132  1  0
 58131  1  0
 58132  1  0
 59 60  1  0
 61 62  1  0
 63 64  1  0
 63133  1  0
 63134  1  0
 64133  1  0
 64134  1  0
 65 66  1  0
 67 68  1  0
 69 70  1  0
 71 72  1  0
 71135  1  0
 71136  1  0
 72135  1  0
 72136  1  0
 73 74  1  0
 75 76  1  0
 77 78  1  0
 79 80  1  0
 81 82  1  0
 81137  1  0
 81138  1  0
 82137  1  0
 82138  1  0
 83 84  1  0
 85 88  1  0
 99100  1  0
101102  1  0
103104  1  0
105106  1  0
107108  1  0
109110  1  0
111112  1  0
113114  1  0
115116  1  0
117118  1  0
117139  1  0
117140  1  0
118139  1  0
118140  1  0
119120  1  0
119139  1  0
119140  1  0
120139  1  0
120140  1  0
121122  1  0
123124  1  0
125126  1  0
127128  1  0
129130  1  0
131132  1  0
133134  1  0
135136  1  0
137138  1  0
139140  1  0
141142  1  0
143144  1  0
149150  1  0
M  END
$$$$
