7maz_B_YVD_401
     RDKit          3D

 75 77  0  0  0  0  0  0  0  0999 V2000
   32.0420  -11.2420    1.3080 C   0  0  0  0  0  3  0  0  0  0  0  0
   31.9740  -13.7510    0.9380 C   0  0  0  0  0  0  0  0  0  0  0  0
   32.8310  -14.9730    0.5490 C   0  0  0  0  0  0  0  0  0  0  0  0
   29.6390  -14.9940    3.8580 C   0  0  0  0  0  0  0  0  0  0  0  0
   28.4480  -14.0440    4.1120 C   0  0  0  0  0  0  0  0  0  0  0  0
   28.9200  -12.6120    4.4510 C   0  0  0  0  0  0  0  0  0  0  0  0
   27.7600  -11.7290    4.7210 C   0  0  0  0  0  3  0  0  0  0  0  0
   29.2270  -16.4970    3.9190 C   0  0  0  0  0  3  0  0  0  0  0  0
   30.5170  -17.3550    3.6860 C   0  0  0  0  0  0  0  0  0  0  0  0
   30.6010  -18.4770    4.7190 C   0  0  0  0  0  3  0  0  0  0  0  0
   31.4450  -14.0770    2.3380 C   0  0  0  0  0  3  0  0  0  0  0  0
   32.2100  -19.7010    5.9810 C   0  0  0  0  0  0  0  0  0  0  0  0
   33.7150  -19.3370    6.0810 C   0  0  0  0  0  0  0  0  0  0  0  0
   29.4470  -11.1620    6.3370 C   0  0  0  0  0  0  0  0  0  0  0  0
   29.8260  -12.4990    5.6390 C   0  0  0  0  0  0  0  0  0  0  0  0
   33.0260  -14.0490   -3.8360 C   0  0  0  0  0  3  0  0  0  0  0  0
   31.7710  -14.7080   -3.2750 C   0  0  0  0  0  3  0  0  0  0  0  0
   31.7350  -15.0370   -1.8030 C   0  0  0  0  0  3  0  0  0  0  0  0
   32.9350  -14.6950   -0.9380 C   0  0  0  0  0  3  0  0  0  0  0  0
   34.1890  -14.0240   -1.4700 C   0  0  0  0  0  3  0  0  0  0  0  0
   34.2170  -13.7110   -2.9580 C   0  0  0  0  0  3  0  0  0  0  0  0
   32.9260   -9.9860    1.4870 C   0  0  0  0  0  0  0  0  0  0  0  0
   33.8650   -9.8560    0.3010 C   0  0  0  0  0  0  0  0  0  0  0  0
   31.6190   -8.8700   -3.5250 C   0  0  0  0  0  3  0  0  0  0  0  0
   32.0170   -7.7510   -2.5770 C   0  0  0  0  0  3  0  0  0  0  0  0
   32.7330   -8.0690   -1.2780 C   0  0  0  0  0  3  0  0  0  0  0  0
   33.1230   -9.4770   -0.9790 C   0  0  0  0  0  3  0  0  0  0  0  0
   32.7480  -10.5970   -1.9330 C   0  0  0  0  0  3  0  0  0  0  0  0
   31.9960  -10.3030   -3.1920 C   0  0  0  0  0  3  0  0  0  0  0  0
   33.0600  -13.7490   -5.1570 F   0  0  0  0  0  0  0  0  0  0  0  0
   30.9620   -8.5960   -4.6690 F   0  0  0  0  0  0  0  0  0  0  0  0
   33.6170  -12.5020    0.9910 H   0  0  0  0  0  0  0  0  0  0  0  0
   31.2530  -13.6420    0.3480 H   0  0  0  0  0  0  0  0  0  0  0  0
   32.3790  -15.7790    0.7170 H   0  0  0  0  0  0  0  0  0  0  0  0
   33.6730  -14.9500    0.9640 H   0  0  0  0  0  0  0  0  0  0  0  0
   29.5810  -14.8040    1.8370 H   0  0  0  0  0  0  0  0  0  0  0  0
   30.3210  -14.8300    4.4810 H   0  0  0  0  0  0  0  0  0  0  0  0
   27.9120  -14.0140    3.3420 H   0  0  0  0  0  0  0  0  0  0  0  0
   27.9380  -14.3760    4.8270 H   0  0  0  0  0  0  0  0  0  0  0  0
   29.3780  -12.2700    3.7060 H   0  0  0  0  0  0  0  0  0  0  0  0
   27.6100  -10.2500    6.2190 H   0  0  0  0  0  0  0  0  0  0  0  0
   28.8560  -16.6800    4.7740 H   0  0  0  0  0  0  0  0  0  0  0  0
   31.2740  -16.8050    3.7630 H   0  0  0  0  0  0  0  0  0  0  0  0
   30.4910  -17.7280    2.8250 H   0  0  0  0  0  0  0  0  0  0  0  0
   31.7240  -19.2510    6.6460 H   0  0  0  0  0  0  0  0  0  0  0  0
   32.1100  -20.6240    6.0770 H   0  0  0  0  0  0  0  0  0  0  0  0
   34.1710  -19.6830    5.3370 H   0  0  0  0  0  0  0  0  0  0  0  0
   33.8110  -18.4030    6.1010 H   0  0  0  0  0  0  0  0  0  0  0  0
   34.0740  -19.7050    6.8670 H   0  0  0  0  0  0  0  0  0  0  0  0
   30.0400  -10.4810    6.0800 H   0  0  0  0  0  0  0  0  0  0  0  0
   29.4510  -11.2700    7.2700 H   0  0  0  0  0  0  0  0  0  0  0  0
   30.7220  -12.4750    5.3600 H   0  0  0  0  0  0  0  0  0  0  0  0
   29.6820  -13.2200    6.2240 H   0  0  0  0  0  0  0  0  0  0  0  0
   31.0520  -14.9120   -3.8270 H   0  0  0  0  0  0  0  0  0  0  0  0
   30.9790  -15.4240   -1.4260 H   0  0  0  0  0  0  0  0  0  0  0  0
   34.9030  -13.8150   -0.9140 H   0  0  0  0  0  0  0  0  0  0  0  0
   34.9610  -13.3060   -3.3310 H   0  0  0  0  0  0  0  0  0  0  0  0
   33.4620  -10.1350    2.2430 H   0  0  0  0  0  0  0  0  0  0  0  0
   32.0820   -8.7330    2.6110 H   0  0  0  0  0  0  0  0  0  0  0  0
   31.3760   -8.9200    1.3960 H   0  0  0  0  0  0  0  0  0  0  0  0
   34.3090  -10.6720    0.1660 H   0  0  0  0  0  0  0  0  0  0  0  0
   34.5020   -9.1920    0.4900 H   0  0  0  0  0  0  0  0  0  0  0  0
   31.7730   -6.8750   -2.7670 H   0  0  0  0  0  0  0  0  0  0  0  0
   32.9790   -7.3840   -0.7010 H   0  0  0  0  0  0  0  0  0  0  0  0
   32.9730  -11.4740   -1.7250 H   0  0  0  0  0  0  0  0  0  0  0  0
   31.7780  -10.9910   -3.7770 H   0  0  0  0  0  0  0  0  0  0  0  0
   32.7500  -12.4880    1.0310 N   0  0  0  0  0  0  0  0  0  0  0  0
   30.0840  -14.6400    2.5250 N   0  0  0  0  0  0  0  0  0  0  0  0
   28.1210  -10.8640    5.8790 N   0  0  0  0  0  0  0  0  0  0  0  0
   32.1630   -8.8350    1.7530 N   0  0  0  0  0  0  0  0  0  0  0  0
   30.8440  -11.2200    1.4200 O   0  0  0  0  0  1  0  0  0  0  0  0
   26.7350  -11.6630    4.1190 O   0  0  0  0  0  1  0  0  0  0  0  0
   31.7630  -19.3160    4.6990 O   0  0  0  0  0  0  0  0  0  0  0  0
   29.7100  -18.6520    5.4970 O   0  0  0  0  0  1  0  0  0  0  0  0
   32.1350  -13.8900    3.2850 O   0  0  0  0  0  1  0  0  0  0  0  0
  1 22  1  0
  1 67  1  0
  1 71  1  0
  2  3  1  0
  2 11  1  0
  2 33  1  0
  2 67  1  0
  3 19  1  0
  3 34  1  0
  3 35  1  0
  4  5  1  0
  4  8  1  0
  4 37  1  0
  4 68  1  0
  5  6  1  0
  5 38  1  0
  5 39  1  0
  6  7  1  0
  6 15  1  0
  6 40  1  0
  7 69  1  0
  7 72  1  0
  8  9  1  0
  8 42  1  0
  9 10  1  0
  9 43  1  0
  9 44  1  0
 10 73  1  0
 10 74  1  0
 11 68  1  0
 11 75  1  0
 12 13  1  0
 12 45  1  0
 12 46  1  0
 12 73  1  0
 13 47  1  0
 13 48  1  0
 13 49  1  0
 14 15  1  0
 14 50  1  0
 14 51  1  0
 14 69  1  0
 15 52  1  0
 15 53  1  0
 16 17  1  0
 16 21  1  0
 16 30  1  0
 17 18  1  0
 17 54  1  0
 18 19  1  0
 18 55  1  0
 19 20  1  0
 20 21  1  0
 20 56  1  0
 21 57  1  0
 22 23  1  0
 22 58  1  0
 22 70  1  0
 23 27  1  0
 23 61  1  0
 23 62  1  0
 24 25  1  0
 24 29  1  0
 24 31  1  0
 25 26  1  0
 25 63  1  0
 26 27  1  0
 26 64  1  0
 27 28  1  0
 28 29  1  0
 28 65  1  0
 29 66  1  0
 32 67  1  0
 36 68  1  0
 41 69  1  0
 59 70  1  0
 60 70  1  0
M  END
$$$$
