7mb1_A_YVJ_401
     RDKit          3D

 75 77  0  0  0  0  0  0  0  0999 V2000
  -12.3610   -9.8690   21.4730 C   0  0  0  0  0  3  0  0  0  0  0  0
  -12.2480  -12.2250   22.1180 C   0  0  0  0  0  0  0  0  0  0  0  0
  -13.0270  -13.2990   22.8050 C   0  0  0  0  0  0  0  0  0  0  0  0
  -10.0880  -13.8450   19.3020 C   0  0  0  0  0  0  0  0  0  0  0  0
   -8.8480  -13.0660   18.8140 C   0  0  0  0  0  0  0  0  0  0  0  0
   -9.2330  -11.6670   18.3470 C   0  0  0  0  0  0  0  0  0  0  0  0
   -8.1190  -10.8630   17.9330 C   0  0  0  0  0  3  0  0  0  0  0  0
   -9.8130  -15.3510   19.5190 C   0  0  0  0  0  3  0  0  0  0  0  0
  -11.1440  -16.1360   19.6570 C   0  0  0  0  0  0  0  0  0  0  0  0
  -11.1120  -17.4940   18.8590 C   0  0  0  0  0  3  0  0  0  0  0  0
  -11.8800  -12.7400   20.7170 C   0  0  0  0  0  3  0  0  0  0  0  0
  -13.2090  -18.7360   18.2830 C   0  0  0  0  0  0  0  0  0  0  0  0
  -12.8730  -18.5640   16.7800 C   0  0  0  0  0  0  0  0  0  0  0  0
   -9.8390  -10.4870   16.3190 C   0  0  0  0  0  0  0  0  0  0  0  0
  -10.2730  -11.6290   17.2580 C   0  0  0  0  0  0  0  0  0  0  0  0
  -12.9260  -11.8390   27.1750 C   0  0  0  0  0  3  0  0  0  0  0  0
  -14.1250  -11.5960   26.3040 C   0  0  0  0  0  3  0  0  0  0  0  0
  -14.1680  -12.0880   24.8630 C   0  0  0  0  0  3  0  0  0  0  0  0
  -12.9940  -12.8530   24.2900 C   0  0  0  0  0  3  0  0  0  0  0  0
  -11.7640  -13.0990   25.1350 C   0  0  0  0  0  3  0  0  0  0  0  0
  -11.7250  -12.6070   26.5940 C   0  0  0  0  0  3  0  0  0  0  0  0
  -13.2500   -8.6600   21.1500 C   0  0  0  0  0  0  0  0  0  0  0  0
  -14.1050   -8.2300   22.3170 C   0  0  0  0  0  0  0  0  0  0  0  0
  -11.7690   -6.7250   25.9240 C   0  0  0  0  0  3  0  0  0  0  0  0
  -12.1710   -8.1880   25.8280 C   0  0  0  0  0  3  0  0  0  0  0  0
  -12.9440   -8.6690   24.6230 C   0  0  0  0  0  3  0  0  0  0  0  0
  -13.3270   -7.7230   23.5230 C   0  0  0  0  0  3  0  0  0  0  0  0
  -12.9020   -6.2690   23.6140 C   0  0  0  0  0  3  0  0  0  0  0  0
  -12.1770   -5.7690   24.8310 C   0  0  0  0  0  3  0  0  0  0  0  0
  -11.1040   -6.2640   26.9880 F   0  0  0  0  0  0  0  0  0  0  0  0
  -13.8940  -11.0470   22.0350 H   0  0  0  0  0  0  0  0  0  0  0  0
  -11.5060  -12.0190   22.6550 H   0  0  0  0  0  0  0  0  0  0  0  0
  -12.6170  -14.1370   22.6950 H   0  0  0  0  0  0  0  0  0  0  0  0
  -13.9080  -13.3370   22.4830 H   0  0  0  0  0  0  0  0  0  0  0  0
  -10.0180  -13.2880   21.2430 H   0  0  0  0  0  0  0  0  0  0  0  0
  -10.7350  -13.7600   18.6270 H   0  0  0  0  0  0  0  0  0  0  0  0
   -8.4550  -13.5310   18.1000 H   0  0  0  0  0  0  0  0  0  0  0  0
   -8.2320  -12.9960   19.5190 H   0  0  0  0  0  0  0  0  0  0  0  0
   -9.6150  -11.2480   19.0950 H   0  0  0  0  0  0  0  0  0  0  0  0
   -8.0740   -9.4350   16.4200 H   0  0  0  0  0  0  0  0  0  0  0  0
   -9.2870  -15.7020   18.8100 H   0  0  0  0  0  0  0  0  0  0  0  0
  -11.2940  -16.3210   20.5650 H   0  0  0  0  0  0  0  0  0  0  0  0
  -11.8440  -15.6060   19.3260 H   0  0  0  0  0  0  0  0  0  0  0  0
  -12.3700   -7.4900   19.9060 H   0  0  0  0  0  0  0  0  0  0  0  0
  -13.8840  -18.1230   18.5070 H   0  0  0  0  0  0  0  0  0  0  0  0
  -13.5240  -19.6110   18.4170 H   0  0  0  0  0  0  0  0  0  0  0  0
  -12.2600  -19.2260   16.5190 H   0  0  0  0  0  0  0  0  0  0  0  0
  -13.6590  -18.6470   16.2730 H   0  0  0  0  0  0  0  0  0  0  0  0
  -12.4970  -17.7150   16.6390 H   0  0  0  0  0  0  0  0  0  0  0  0
   -9.8740  -10.7740   15.4260 H   0  0  0  0  0  0  0  0  0  0  0  0
  -10.3920   -9.7380   16.4460 H   0  0  0  0  0  0  0  0  0  0  0  0
  -11.1190  -11.4450   17.6230 H   0  0  0  0  0  0  0  0  0  0  0  0
  -10.2870  -12.4440   16.7930 H   0  0  0  0  0  0  0  0  0  0  0  0
  -12.9090  -11.5310   28.0520 H   0  0  0  0  0  0  0  0  0  0  0  0
  -14.8550  -11.1360   26.6500 H   0  0  0  0  0  0  0  0  0  0  0  0
  -14.9150  -11.9200   24.3360 H   0  0  0  0  0  0  0  0  0  0  0  0
  -11.0330  -13.5470   24.7750 H   0  0  0  0  0  0  0  0  0  0  0  0
  -10.9790  -12.7720   27.1220 H   0  0  0  0  0  0  0  0  0  0  0  0
  -13.8410   -8.8990   20.4600 H   0  0  0  0  0  0  0  0  0  0  0  0
  -11.5940   -7.7320   21.0670 H   0  0  0  0  0  0  0  0  0  0  0  0
  -14.6190   -8.9670   22.5890 H   0  0  0  0  0  0  0  0  0  0  0  0
  -14.6730   -7.5420   22.0250 H   0  0  0  0  0  0  0  0  0  0  0  0
  -11.9420   -8.7820   26.5050 H   0  0  0  0  0  0  0  0  0  0  0  0
  -13.1860   -9.5630   24.5620 H   0  0  0  0  0  0  0  0  0  0  0  0
  -13.0900   -5.6860   22.9150 H   0  0  0  0  0  0  0  0  0  0  0  0
  -11.9780   -4.8650   24.9110 H   0  0  0  0  0  0  0  0  0  0  0  0
  -13.0360  -11.0440   21.9050 N   0  0  0  0  0  0  0  0  0  0  0  0
  -10.5560  -13.2900   20.5610 N   0  0  0  0  0  0  0  0  0  0  0  0
   -8.4720  -10.1600   16.6810 N   0  0  0  0  0  0  0  0  0  0  0  0
  -12.3940   -7.5880   20.7660 N   0  0  0  0  0  0  0  0  0  0  0  0
  -11.1840   -9.8370   21.3370 O   0  0  0  0  0  1  0  0  0  0  0  0
   -7.0160  -10.7780   18.4610 O   0  0  0  0  0  1  0  0  0  0  0  0
  -12.0910  -18.5200   19.1610 O   0  0  0  0  0  0  0  0  0  0  0  0
  -10.2760  -17.7340   18.0250 O   0  0  0  0  0  1  0  0  0  0  0  0
  -12.6150  -12.6680   19.7700 O   0  0  0  0  0  1  0  0  0  0  0  0
  1 22  1  0
  1 67  1  0
  1 71  1  0
  2  3  1  0
  2 11  1  0
  2 32  1  0
  2 67  1  0
  3 19  1  0
  3 33  1  0
  3 34  1  0
  4  5  1  0
  4  8  1  0
  4 36  1  0
  4 68  1  0
  5  6  1  0
  5 37  1  0
  5 38  1  0
  6  7  1  0
  6 15  1  0
  6 39  1  0
  7 69  1  0
  7 72  1  0
  8  9  1  0
  8 41  1  0
  9 10  1  0
  9 42  1  0
  9 43  1  0
 10 73  1  0
 10 74  1  0
 11 68  1  0
 11 75  1  0
 12 13  1  0
 12 45  1  0
 12 46  1  0
 12 73  1  0
 13 47  1  0
 13 48  1  0
 13 49  1  0
 14 15  1  0
 14 50  1  0
 14 51  1  0
 14 69  1  0
 15 52  1  0
 15 53  1  0
 16 17  1  0
 16 21  1  0
 16 54  1  0
 17 18  1  0
 17 55  1  0
 18 19  1  0
 18 56  1  0
 19 20  1  0
 20 21  1  0
 20 57  1  0
 21 58  1  0
 22 23  1  0
 22 59  1  0
 22 70  1  0
 23 27  1  0
 23 61  1  0
 23 62  1  0
 24 25  1  0
 24 29  1  0
 24 30  1  0
 25 26  1  0
 25 63  1  0
 26 27  1  0
 26 64  1  0
 27 28  1  0
 28 29  1  0
 28 65  1  0
 29 66  1  0
 31 67  1  0
 35 68  1  0
 40 69  1  0
 44 70  1  0
 60 70  1  0
M  END
$$$$
