7mb2_B_YVM_401
     RDKit          3D

 89 91  0  0  0  0  0  0  0  0999 V2000
  -18.8600   -8.5620   47.0670 C   0  0  0  0  0  3  0  0  0  0  0  0
  -18.7320  -11.0050   47.7390 C   0  0  0  0  0  0  0  0  0  0  0  0
  -19.5790  -12.0290   48.4450 C   0  0  0  0  0  0  0  0  0  0  0  0
  -16.5420  -12.4880   44.8430 C   0  0  0  0  0  0  0  0  0  0  0  0
  -15.3480  -11.6570   44.4510 C   0  0  0  0  0  0  0  0  0  0  0  0
  -15.8160  -10.3170   43.9100 C   0  0  0  0  0  0  0  0  0  0  0  0
  -14.6050   -9.3190   43.5280 C   0  0  0  0  0  3  0  0  0  0  0  0
  -16.2100  -14.0330   45.0670 C   0  0  0  0  0  3  0  0  0  0  0  0
  -17.5700  -14.7660   45.2500 C   0  0  0  0  0  0  0  0  0  0  0  0
  -17.5620  -16.0930   44.4120 C   0  0  0  0  0  3  0  0  0  0  0  0
  -18.3440  -11.4330   46.3060 C   0  0  0  0  0  3  0  0  0  0  0  0
  -19.8760  -16.6400   44.0570 C   0  0  0  0  0  0  0  0  0  0  0  0
  -20.1480  -17.5510   42.8420 C   0  0  0  0  0  0  0  0  0  0  0  0
  -16.5370   -8.9110   42.2570 C   0  0  0  0  0  0  0  0  0  0  0  0
  -16.7570  -10.2970   42.9540 C   0  0  0  0  0  0  0  0  0  0  0  0
  -19.3020  -10.4300   52.7340 C   0  0  0  0  0  3  0  0  0  0  0  0
  -20.5890  -10.2770   51.9440 C   0  0  0  0  0  3  0  0  0  0  0  0
  -20.7080  -10.8030   50.5340 C   0  0  0  0  0  3  0  0  0  0  0  0
  -19.5210  -11.4930   49.9060 C   0  0  0  0  0  3  0  0  0  0  0  0
  -18.2030  -11.6070   50.6930 C   0  0  0  0  0  3  0  0  0  0  0  0
  -18.0790  -11.0830   52.1120 C   0  0  0  0  0  3  0  0  0  0  0  0
  -19.8070   -7.3880   46.7290 C   0  0  0  0  0  0  0  0  0  0  0  0
  -20.7120   -7.1300   47.9230 C   0  0  0  0  0  0  0  0  0  0  0  0
  -18.3430   -5.4130   51.4980 C   0  0  0  0  0  3  0  0  0  0  0  0
  -18.7730   -6.8810   51.4850 C   0  0  0  0  0  3  0  0  0  0  0  0
  -19.5360   -7.4240   50.2910 C   0  0  0  0  0  3  0  0  0  0  0  0
  -19.9040   -6.5430   49.1290 C   0  0  0  0  0  3  0  0  0  0  0  0
  -19.5090   -5.0500   49.1540 C   0  0  0  0  0  3  0  0  0  0  0  0
  -18.7360   -4.5150   50.3530 C   0  0  0  0  0  3  0  0  0  0  0  0
  -19.5610   -5.3110   45.4080 C   0  0  0  0  0  3  0  0  0  0  0  0
  -18.7630   -4.0180   45.0300 C   0  0  0  0  0  0  0  0  0  0  0  0
  -18.8370   -3.8680   43.5330 C   0  0  0  0  0  0  0  0  0  0  0  0
  -17.7520   -5.7760   42.6610 C   0  0  0  0  0  0  0  0  0  0  0  0
  -18.3580   -6.0260   41.2360 C   0  0  0  0  0  2  0  0  0  0  0  0
  -18.8320   -6.2280   40.1340 C   0  0  0  0  0  2  0  0  0  0  0  0
  -17.6680   -4.9210   52.5720 F   0  0  0  0  0  0  0  0  0  0  0  0
  -20.3450   -9.8160   47.6230 H   0  0  0  0  0  0  0  0  0  0  0  0
  -17.9850  -10.8960   48.2970 H   0  0  0  0  0  0  0  0  0  0  0  0
  -20.4580  -12.0390   48.1150 H   0  0  0  0  0  0  0  0  0  0  0  0
  -19.2100  -12.8900   48.3780 H   0  0  0  0  0  0  0  0  0  0  0  0
  -16.4810  -12.0430   46.8190 H   0  0  0  0  0  0  0  0  0  0  0  0
  -17.1640  -12.4150   44.1440 H   0  0  0  0  0  0  0  0  0  0  0  0
  -14.8030  -11.5170   45.2030 H   0  0  0  0  0  0  0  0  0  0  0  0
  -14.8570  -12.1070   43.7890 H   0  0  0  0  0  0  0  0  0  0  0  0
  -16.2900   -9.9400   44.6280 H   0  0  0  0  0  0  0  0  0  0  0  0
  -14.7420   -7.6320   42.4950 H   0  0  0  0  0  0  0  0  0  0  0  0
  -15.7000  -14.3980   44.3520 H   0  0  0  0  0  0  0  0  0  0  0  0
  -17.6970  -14.9690   46.1570 H   0  0  0  0  0  0  0  0  0  0  0  0
  -18.2670  -14.2120   44.9520 H   0  0  0  0  0  0  0  0  0  0  0  0
  -19.8460  -15.7430   43.7810 H   0  0  0  0  0  0  0  0  0  0  0  0
  -20.5580  -16.7480   44.6940 H   0  0  0  0  0  0  0  0  0  0  0  0
  -20.3950  -18.4060   43.1410 H   0  0  0  0  0  0  0  0  0  0  0  0
  -19.3720  -17.6150   42.3190 H   0  0  0  0  0  0  0  0  0  0  0  0
  -20.8440  -17.1860   42.3270 H   0  0  0  0  0  0  0  0  0  0  0  0
  -17.1430   -8.2830   42.6020 H   0  0  0  0  0  0  0  0  0  0  0  0
  -16.6490   -9.0020   41.3290 H   0  0  0  0  0  0  0  0  0  0  0  0
  -16.6250  -10.9980   42.3440 H   0  0  0  0  0  0  0  0  0  0  0  0
  -17.6150  -10.3440   43.3320 H   0  0  0  0  0  0  0  0  0  0  0  0
  -19.2610  -10.1210   53.6090 H   0  0  0  0  0  0  0  0  0  0  0  0
  -21.3160   -9.8510   52.3350 H   0  0  0  0  0  0  0  0  0  0  0  0
  -21.5000  -10.7040   50.0600 H   0  0  0  0  0  0  0  0  0  0  0  0
  -17.4670  -12.0050   50.2900 H   0  0  0  0  0  0  0  0  0  0  0  0
  -17.2820  -11.1580   52.5840 H   0  0  0  0  0  0  0  0  0  0  0  0
  -20.3660   -7.5860   46.0010 H   0  0  0  0  0  0  0  0  0  0  0  0
  -18.2410   -6.1600   46.6900 H   0  0  0  0  0  0  0  0  0  0  0  0
  -21.1100   -7.9390   48.1860 H   0  0  0  0  0  0  0  0  0  0  0  0
  -21.3800   -6.5190   47.6750 H   0  0  0  0  0  0  0  0  0  0  0  0
  -18.5680   -7.4350   52.2020 H   0  0  0  0  0  0  0  0  0  0  0  0
  -19.7820   -8.3200   50.2780 H   0  0  0  0  0  0  0  0  0  0  0  0
  -19.7390   -4.4890   48.4500 H   0  0  0  0  0  0  0  0  0  0  0  0
  -18.5030   -3.6160   50.3790 H   0  0  0  0  0  0  0  0  0  0  0  0
  -19.1460   -3.2690   45.4470 H   0  0  0  0  0  0  0  0  0  0  0  0
  -17.8670   -4.1020   45.3000 H   0  0  0  0  0  0  0  0  0  0  0  0
  -18.9250   -2.9600   43.3100 H   0  0  0  0  0  0  0  0  0  0  0  0
  -19.5750   -4.3450   43.2030 H   0  0  0  0  0  0  0  0  0  0  0  0
  -18.3080   -6.1790   43.3010 H   0  0  0  0  0  0  0  0  0  0  0  0
  -16.8980   -6.1660   42.6990 H   0  0  0  0  0  0  0  0  0  0  0  0
  -19.1860   -6.3730   39.3130 H   0  0  0  0  0  0  0  0  0  0  0  0
  -19.4860   -9.8020   47.5020 N   0  0  0  0  0  0  0  0  0  0  0  0
  -17.0110  -11.9980   46.1330 N   0  0  0  0  0  0  0  0  0  0  0  0
  -15.0300   -8.4460   42.5780 N   0  0  0  0  0  0  0  0  0  0  0  0
  -19.0340   -6.2710   46.3540 N   0  0  0  0  0  0  0  0  0  0  0  0
  -17.6790   -8.4960   46.9190 O   0  0  0  0  0  1  0  0  0  0  0  0
  -13.5820   -9.2750   44.0800 O   0  0  0  0  0  1  0  0  0  0  0  0
  -18.6410  -17.0070   44.6150 O   0  0  0  0  0  0  0  0  0  0  0  0
  -16.5880  -16.3680   43.6280 O   0  0  0  0  0  1  0  0  0  0  0  0
  -19.0770  -11.3910   45.3530 O   0  0  0  0  0  1  0  0  0  0  0  0
  -20.5990   -5.5910   44.9400 O   0  0  0  0  0  1  0  0  0  0  0  0
  -17.6370   -4.3880   42.9630 O   0  0  0  0  0  0  0  0  0  0  0  0
  1 22  1  0
  1 79  1  0
  1 83  1  0
  2  3  1  0
  2 11  1  0
  2 38  1  0
  2 79  1  0
  3 19  1  0
  3 39  1  0
  3 40  1  0
  4  5  1  0
  4  8  1  0
  4 42  1  0
  4 80  1  0
  5  6  1  0
  5 43  1  0
  5 44  1  0
  6  7  1  0
  6 15  1  0
  6 45  1  0
  7 81  1  0
  7 84  1  0
  8  9  1  0
  8 47  1  0
  9 10  1  0
  9 48  1  0
  9 49  1  0
 10 85  1  0
 10 86  1  0
 11 80  1  0
 11 87  1  0
 12 13  1  0
 12 50  1  0
 12 51  1  0
 12 85  1  0
 13 52  1  0
 13 53  1  0
 13 54  1  0
 14 15  1  0
 14 55  1  0
 14 56  1  0
 14 81  1  0
 15 57  1  0
 15 58  1  0
 16 17  1  0
 16 21  1  0
 16 59  1  0
 17 18  1  0
 17 60  1  0
 18 19  1  0
 18 61  1  0
 19 20  1  0
 20 21  1  0
 20 62  1  0
 21 63  1  0
 22 23  1  0
 22 64  1  0
 22 82  1  0
 23 27  1  0
 23 66  1  0
 23 67  1  0
 24 25  1  0
 24 29  1  0
 24 36  1  0
 25 26  1  0
 25 68  1  0
 26 27  1  0
 26 69  1  0
 27 28  1  0
 28 29  1  0
 28 70  1  0
 29 71  1  0
 30 31  1  0
 30 82  1  0
 30 88  1  0
 31 32  1  0
 31 72  1  0
 31 73  1  0
 32 74  1  0
 32 75  1  0
 32 89  1  0
 33 34  1  0
 33 76  1  0
 33 77  1  0
 33 89  1  0
 34 35  1  0
 35 78  1  0
 37 79  1  0
 41 80  1  0
 46 81  1  0
 65 82  1  0
M  END
$$$$
