7mb3_E_YVV_401
     RDKit          3D

 89 91  0  0  0  0  0  0  0  0999 V2000
  -10.3770    4.0650  -75.1910 C   0  0  0  0  0  3  0  0  0  0  0  0
   -7.9330    4.3350  -75.6060 C   0  0  0  0  0  0  0  0  0  0  0  0
   -6.6840    3.4620  -75.5120 C   0  0  0  0  0  0  0  0  0  0  0  0
   -6.9000    7.5480  -77.7260 C   0  0  0  0  0  0  0  0  0  0  0  0
   -7.8920    8.7020  -77.7090 C   0  0  0  0  0  0  0  0  0  0  0  0
   -9.3050    8.1480  -77.9750 C   0  0  0  0  0  0  0  0  0  0  0  0
  -10.3380    9.1400  -78.0330 C   0  0  0  0  0  3  0  0  0  0  0  0
   -5.4440    7.9290  -77.5340 C   0  0  0  0  0  3  0  0  0  0  0  0
   -4.5140    6.7690  -77.9580 C   0  0  0  0  0  0  0  0  0  0  0  0
   -3.2470    7.2710  -78.6880 C   0  0  0  0  0  3  0  0  0  0  0  0
   -7.6030    5.2400  -76.8200 C   0  0  0  0  0  3  0  0  0  0  0  0
   -2.6870    5.9030  -80.5680 C   0  0  0  0  0  0  0  0  0  0  0  0
   -3.1970    4.4540  -80.5590 C   0  0  0  0  0  0  0  0  0  0  0  0
  -10.9110    7.4830  -79.6760 C   0  0  0  0  0  0  0  0  0  0  0  0
   -9.4390    7.2950  -79.2210 C   0  0  0  0  0  0  0  0  0  0  0  0
   -5.9930    1.1270  -71.6110 C   0  0  0  0  0  3  0  0  0  0  0  0
   -7.1220    2.1610  -71.6710 C   0  0  0  0  0  3  0  0  0  0  0  0
   -7.3740    2.9600  -72.9560 C   0  0  0  0  0  3  0  0  0  0  0  0
   -6.4950    2.7120  -74.1790 C   0  0  0  0  0  3  0  0  0  0  0  0
   -5.3700    1.6790  -74.1200 C   0  0  0  0  0  3  0  0  0  0  0  0
   -5.1160    0.8820  -72.8390 C   0  0  0  0  0  3  0  0  0  0  0  0
  -11.6940    3.3000  -75.4010 C   0  0  0  0  0  0  0  0  0  0  0  0
  -12.2030    2.9090  -74.0030 C   0  0  0  0  0  0  0  0  0  0  0  0
  -15.1480   -0.6510  -74.1090 C   0  0  0  0  0  3  0  0  0  0  0  0
  -15.6690    0.7540  -73.7800 C   0  0  0  0  0  3  0  0  0  0  0  0
  -14.6930    1.9410  -73.7420 C   0  0  0  0  0  3  0  0  0  0  0  0
  -13.2030    1.7150  -74.0430 C   0  0  0  0  0  3  0  0  0  0  0  0
  -12.6810    0.3140  -74.3690 C   0  0  0  0  0  3  0  0  0  0  0  0
  -13.6580   -0.8730  -74.4030 C   0  0  0  0  0  3  0  0  0  0  0  0
  -12.9570    4.1290  -77.4730 C   0  0  0  0  0  3  0  0  0  0  0  0
  -14.0950    5.0410  -78.0110 C   0  0  0  0  0  0  0  0  0  0  0  0
  -14.2980    4.9410  -79.5410 C   0  0  0  0  0  0  0  0  0  0  0  0
  -13.6490    6.1570  -81.4910 C   0  0  0  0  0  0  0  0  0  0  0  0
  -13.3640    7.5820  -82.0040 C   0  0  0  0  0  2  0  0  0  0  0  0
  -13.1490    8.6730  -82.4080 C   0  0  0  0  0  2  0  0  0  0  0  0
   -9.1390    2.8980  -76.3680 H   0  0  0  0  0  0  0  0  0  0  0  0
   -8.1060    4.7870  -74.8020 H   0  0  0  0  0  0  0  0  0  0  0  0
   -5.9350    4.0150  -75.6410 H   0  0  0  0  0  0  0  0  0  0  0  0
   -6.7240    2.8240  -76.2000 H   0  0  0  0  0  0  0  0  0  0  0  0
   -7.2180    6.9640  -75.7860 H   0  0  0  0  0  0  0  0  0  0  0  0
   -6.9750    7.1650  -78.5800 H   0  0  0  0  0  0  0  0  0  0  0  0
   -7.8710    9.1240  -76.8700 H   0  0  0  0  0  0  0  0  0  0  0  0
   -7.6650    9.3230  -78.3770 H   0  0  0  0  0  0  0  0  0  0  0  0
   -9.4800    7.5950  -77.2370 H   0  0  0  0  0  0  0  0  0  0  0  0
  -12.1960    8.9690  -79.0680 H   0  0  0  0  0  0  0  0  0  0  0  0
   -5.2390    8.7150  -78.0280 H   0  0  0  0  0  0  0  0  0  0  0  0
   -4.2530    6.2950  -77.1910 H   0  0  0  0  0  0  0  0  0  0  0  0
   -4.9870    6.1970  -78.5330 H   0  0  0  0  0  0  0  0  0  0  0  0
   -1.9220    5.9550  -81.1100 H   0  0  0  0  0  0  0  0  0  0  0  0
   -3.3570    6.4610  -80.9170 H   0  0  0  0  0  0  0  0  0  0  0  0
   -2.9060    4.0150  -81.3360 H   0  0  0  0  0  0  0  0  0  0  0  0
   -4.1350    4.4530  -80.5320 H   0  0  0  0  0  0  0  0  0  0  0  0
   -2.8610    4.0090  -79.8030 H   0  0  0  0  0  0  0  0  0  0  0  0
  -10.9520    7.5420  -80.6120 H   0  0  0  0  0  0  0  0  0  0  0  0
  -11.4350    6.7670  -79.3680 H   0  0  0  0  0  0  0  0  0  0  0  0
   -9.2730    6.3940  -79.0190 H   0  0  0  0  0  0  0  0  0  0  0  0
   -8.8510    7.5970  -79.8880 H   0  0  0  0  0  0  0  0  0  0  0  0
   -5.8410    0.6480  -70.8290 H   0  0  0  0  0  0  0  0  0  0  0  0
   -7.6560    2.3060  -70.9250 H   0  0  0  0  0  0  0  0  0  0  0  0
   -8.0570    3.5890  -72.9900 H   0  0  0  0  0  0  0  0  0  0  0  0
   -4.8370    1.5330  -74.8670 H   0  0  0  0  0  0  0  0  0  0  0  0
   -4.4320    0.2540  -72.8070 H   0  0  0  0  0  0  0  0  0  0  0  0
  -11.5240    2.5710  -75.9680 H   0  0  0  0  0  0  0  0  0  0  0  0
  -13.2260    4.6050  -75.5040 H   0  0  0  0  0  0  0  0  0  0  0  0
  -11.4670    2.6670  -73.4720 H   0  0  0  0  0  0  0  0  0  0  0  0
  -12.6340    3.6500  -73.6210 H   0  0  0  0  0  0  0  0  0  0  0  0
  -15.7360   -1.3700  -74.1310 H   0  0  0  0  0  0  0  0  0  0  0  0
  -16.5720    0.8860  -73.6040 H   0  0  0  0  0  0  0  0  0  0  0  0
  -15.0030    2.7920  -73.5370 H   0  0  0  0  0  0  0  0  0  0  0  0
  -11.7780    0.1820  -74.5460 H   0  0  0  0  0  0  0  0  0  0  0  0
  -13.3460   -1.7250  -74.6010 H   0  0  0  0  0  0  0  0  0  0  0  0
  -14.8970    4.7960  -77.5890 H   0  0  0  0  0  0  0  0  0  0  0  0
  -13.8880    5.9310  -77.7970 H   0  0  0  0  0  0  0  0  0  0  0  0
  -13.7250    4.2860  -79.8940 H   0  0  0  0  0  0  0  0  0  0  0  0
  -15.1900    4.7100  -79.7270 H   0  0  0  0  0  0  0  0  0  0  0  0
  -14.3580    5.7850  -81.9840 H   0  0  0  0  0  0  0  0  0  0  0  0
  -12.8810    5.6280  -81.6000 H   0  0  0  0  0  0  0  0  0  0  0  0
  -12.9880    9.5160  -82.7210 H   0  0  0  0  0  0  0  0  0  0  0  0
   -9.1370    3.5960  -75.8510 N   0  0  0  0  0  0  0  0  0  0  0  0
   -7.2370    6.6520  -76.5960 N   0  0  0  0  0  0  0  0  0  0  0  0
  -11.3650    8.7180  -79.0820 N   0  0  0  0  0  0  0  0  0  0  0  0
  -12.7250    4.1110  -76.0130 N   0  0  0  0  0  0  0  0  0  0  0  0
  -10.3420    5.0230  -74.4960 O   0  0  0  0  0  1  0  0  0  0  0  0
  -10.3910   10.1070  -77.3440 O   0  0  0  0  0  1  0  0  0  0  0  0
   -2.3580    6.3350  -79.2640 O   0  0  0  0  0  0  0  0  0  0  0  0
   -3.0180    8.4380  -78.7590 O   0  0  0  0  0  1  0  0  0  0  0  0
   -7.6120    4.7800  -77.9150 O   0  0  0  0  0  1  0  0  0  0  0  0
  -12.2920    3.4790  -78.1990 O   0  0  0  0  0  1  0  0  0  0  0  0
  -14.0010    6.1950  -80.1210 O   0  0  0  0  0  0  0  0  0  0  0  0
  1 22  1  0
  1 79  1  0
  1 83  1  0
  2  3  1  0
  2 11  1  0
  2 37  1  0
  2 79  1  0
  3 19  1  0
  3 38  1  0
  3 39  1  0
  4  5  1  0
  4  8  1  0
  4 41  1  0
  4 80  1  0
  5  6  1  0
  5 42  1  0
  5 43  1  0
  6  7  1  0
  6 15  1  0
  6 44  1  0
  7 81  1  0
  7 84  1  0
  8  9  1  0
  8 46  1  0
  9 10  1  0
  9 47  1  0
  9 48  1  0
 10 85  1  0
 10 86  1  0
 11 80  1  0
 11 87  1  0
 12 13  1  0
 12 49  1  0
 12 50  1  0
 12 85  1  0
 13 51  1  0
 13 52  1  0
 13 53  1  0
 14 15  1  0
 14 54  1  0
 14 55  1  0
 14 81  1  0
 15 56  1  0
 15 57  1  0
 16 17  1  0
 16 21  1  0
 16 58  1  0
 17 18  1  0
 17 59  1  0
 18 19  1  0
 18 60  1  0
 19 20  1  0
 20 21  1  0
 20 61  1  0
 21 62  1  0
 22 23  1  0
 22 63  1  0
 22 82  1  0
 23 27  1  0
 23 65  1  0
 23 66  1  0
 24 25  1  0
 24 29  1  0
 24 67  1  0
 25 26  1  0
 25 68  1  0
 26 27  1  0
 26 69  1  0
 27 28  1  0
 28 29  1  0
 28 70  1  0
 29 71  1  0
 30 31  1  0
 30 82  1  0
 30 88  1  0
 31 32  1  0
 31 72  1  0
 31 73  1  0
 32 74  1  0
 32 75  1  0
 32 89  1  0
 33 34  1  0
 33 76  1  0
 33 77  1  0
 33 89  1  0
 34 35  1  0
 35 78  1  0
 36 79  1  0
 40 80  1  0
 45 81  1  0
 64 82  1  0
M  END
$$$$
