7mb3_C_YVV_401
     RDKit          3D

 89 91  0  0  0  0  0  0  0  0999 V2000
   50.8310   14.2080  -37.6890 C   0  0  0  0  0  3  0  0  0  0  0  0
   49.7210   16.3650  -37.2970 C   0  0  0  0  0  0  0  0  0  0  0  0
   49.8860   17.8880  -37.2270 C   0  0  0  0  0  0  0  0  0  0  0  0
   46.3190   16.1610  -39.3010 C   0  0  0  0  0  0  0  0  0  0  0  0
   45.5800   14.8480  -39.2670 C   0  0  0  0  0  0  0  0  0  0  0  0
   46.5380   13.6970  -39.8920 C   0  0  0  0  0  0  0  0  0  0  0  0
   45.7010   12.5380  -40.0910 C   0  0  0  0  0  3  0  0  0  0  0  0
   45.5100   17.4320  -38.9960 C   0  0  0  0  0  3  0  0  0  0  0  0
   46.3630   18.7150  -39.1960 C   0  0  0  0  0  0  0  0  0  0  0  0
   46.4770   19.2100  -40.6650 C   0  0  0  0  0  3  0  0  0  0  0  0
   48.7610   16.2440  -38.4990 C   0  0  0  0  0  3  0  0  0  0  0  0
   48.0610   18.3270  -42.3170 C   0  0  0  0  0  0  0  0  0  0  0  0
   48.9330   19.5270  -41.9370 C   0  0  0  0  0  0  0  0  0  0  0  0
   46.9940   12.7770  -42.0990 C   0  0  0  0  0  0  0  0  0  0  0  0
   46.9290   14.0940  -41.3380 C   0  0  0  0  0  0  0  0  0  0  0  0
   52.4410   19.2910  -33.7100 C   0  0  0  0  0  3  0  0  0  0  0  0
   52.0260   20.2590  -34.8080 C   0  0  0  0  0  3  0  0  0  0  0  0
   51.1820   19.7780  -35.9810 C   0  0  0  0  0  3  0  0  0  0  0  0
   50.7370   18.3210  -36.0400 C   0  0  0  0  0  3  0  0  0  0  0  0
   51.1350   17.3390  -34.9410 C   0  0  0  0  0  3  0  0  0  0  0  0
   51.9950   17.8320  -33.7690 C   0  0  0  0  0  3  0  0  0  0  0  0
   52.0800   13.3600  -37.9450 C   0  0  0  0  0  0  0  0  0  0  0  0
   52.8170   13.1530  -36.6300 C   0  0  0  0  0  0  0  0  0  0  0  0
   56.9590   11.3950  -37.6480 C   0  0  0  0  0  3  0  0  0  0  0  0
   56.7750   12.9090  -37.5500 C   0  0  0  0  0  3  0  0  0  0  0  0
   55.3950   13.4960  -37.2130 C   0  0  0  0  0  3  0  0  0  0  0  0
   54.2100   12.5580  -36.9730 C   0  0  0  0  0  3  0  0  0  0  0  0
   54.3930   11.0400  -37.0680 C   0  0  0  0  0  3  0  0  0  0  0  0
   55.7710   10.4560  -37.4020 C   0  0  0  0  0  3  0  0  0  0  0  0
   52.0150   11.5720  -39.7750 C   0  0  0  0  0  3  0  0  0  0  0  0
   51.4660   10.1940  -40.2050 C   0  0  0  0  0  0  0  0  0  0  0  0
   52.2850    9.5810  -41.3570 C   0  0  0  0  0  0  0  0  0  0  0  0
   54.1560    9.1030  -39.9720 C   0  0  0  0  0  0  0  0  0  0  0  0
   55.5110    8.4070  -40.2170 C   0  0  0  0  0  2  0  0  0  0  0  0
   56.5470    7.8670  -40.3900 C   0  0  0  0  0  2  0  0  0  0  0  0
   51.6750   16.0790  -37.6420 H   0  0  0  0  0  0  0  0  0  0  0  0
   49.4280   15.9970  -36.4850 H   0  0  0  0  0  0  0  0  0  0  0  0
   50.2960   18.1850  -38.0180 H   0  0  0  0  0  0  0  0  0  0  0  0
   49.0360   18.2810  -37.1500 H   0  0  0  0  0  0  0  0  0  0  0  0
   47.0470   16.2570  -37.3950 H   0  0  0  0  0  0  0  0  0  0  0  0
   46.6320   16.1610  -40.1860 H   0  0  0  0  0  0  0  0  0  0  0  0
   45.3620   14.6300  -38.3800 H   0  0  0  0  0  0  0  0  0  0  0  0
   44.7930   14.9140  -39.7760 H   0  0  0  0  0  0  0  0  0  0  0  0
   47.2960   13.5350  -39.3620 H   0  0  0  0  0  0  0  0  0  0  0  0
   45.3970   11.4870  -41.9160 H   0  0  0  0  0  0  0  0  0  0  0  0
   44.7370   17.4670  -39.5480 H   0  0  0  0  0  0  0  0  0  0  0  0
   45.9760   19.4030  -38.6870 H   0  0  0  0  0  0  0  0  0  0  0  0
   47.2290   18.5410  -38.8800 H   0  0  0  0  0  0  0  0  0  0  0  0
   47.9720   18.3170  -43.2520 H   0  0  0  0  0  0  0  0  0  0  0  0
   48.5000   17.5470  -42.0360 H   0  0  0  0  0  0  0  0  0  0  0  0
   48.4350   20.3180  -42.0270 H   0  0  0  0  0  0  0  0  0  0  0  0
   49.6820   19.5620  -42.5030 H   0  0  0  0  0  0  0  0  0  0  0  0
   49.2190   19.4370  -41.0470 H   0  0  0  0  0  0  0  0  0  0  0  0
   46.7990   12.9110  -43.0080 H   0  0  0  0  0  0  0  0  0  0  0  0
   47.8390   12.3790  -41.9990 H   0  0  0  0  0  0  0  0  0  0  0  0
   47.7670   14.5170  -41.3450 H   0  0  0  0  0  0  0  0  0  0  0  0
   46.2750   14.6550  -41.7110 H   0  0  0  0  0  0  0  0  0  0  0  0
   52.9650   19.5880  -33.0020 H   0  0  0  0  0  0  0  0  0  0  0  0
   52.2900   21.1490  -34.7640 H   0  0  0  0  0  0  0  0  0  0  0  0
   50.9400   20.3690  -36.6560 H   0  0  0  0  0  0  0  0  0  0  0  0
   50.8590   16.4530  -34.9810 H   0  0  0  0  0  0  0  0  0  0  0  0
   52.2450   17.2420  -33.0950 H   0  0  0  0  0  0  0  0  0  0  0  0
   52.6640   13.7750  -38.5510 H   0  0  0  0  0  0  0  0  0  0  0  0
   51.0860   11.6150  -37.9700 H   0  0  0  0  0  0  0  0  0  0  0  0
   52.9190   13.9740  -36.1850 H   0  0  0  0  0  0  0  0  0  0  0  0
   52.3390   12.5590  -36.0830 H   0  0  0  0  0  0  0  0  0  0  0  0
   57.7930   11.0420  -37.8560 H   0  0  0  0  0  0  0  0  0  0  0  0
   57.4980   13.4750  -37.6940 H   0  0  0  0  0  0  0  0  0  0  0  0
   55.2820   14.4170  -37.1550 H   0  0  0  0  0  0  0  0  0  0  0  0
   53.6700   10.4740  -36.9240 H   0  0  0  0  0  0  0  0  0  0  0  0
   55.8870    9.5360  -37.4560 H   0  0  0  0  0  0  0  0  0  0  0  0
   51.4960    9.6120  -39.4690 H   0  0  0  0  0  0  0  0  0  0  0  0
   50.5760   10.2960  -40.4860 H   0  0  0  0  0  0  0  0  0  0  0  0
   51.6980    9.1730  -41.9660 H   0  0  0  0  0  0  0  0  0  0  0  0
   52.7610   10.2650  -41.7910 H   0  0  0  0  0  0  0  0  0  0  0  0
   54.2560   10.0290  -40.0900 H   0  0  0  0  0  0  0  0  0  0  0  0
   53.8700    8.9280  -39.0950 H   0  0  0  0  0  0  0  0  0  0  0  0
   57.3430    7.4370  -40.5210 H   0  0  0  0  0  0  0  0  0  0  0  0
   50.9170   15.6630  -37.5600 N   0  0  0  0  0  0  0  0  0  0  0  0
   47.3180   16.2270  -38.2190 N   0  0  0  0  0  0  0  0  0  0  0  0
   45.9720   11.9640  -41.4730 N   0  0  0  0  0  0  0  0  0  0  0  0
   51.6200   12.0920  -38.4600 N   0  0  0  0  0  0  0  0  0  0  0  0
   49.7670   13.6680  -37.5730 O   0  0  0  0  0  1  0  0  0  0  0  0
   44.9290   12.1230  -39.2770 O   0  0  0  0  0  1  0  0  0  0  0  0
   46.7500   18.3280  -41.7480 O   0  0  0  0  0  0  0  0  0  0  0  0
   46.3010   20.3690  -40.8810 O   0  0  0  0  0  1  0  0  0  0  0  0
   49.1760   16.2030  -39.6130 O   0  0  0  0  0  1  0  0  0  0  0  0
   52.7340   12.1810  -40.4830 O   0  0  0  0  0  1  0  0  0  0  0  0
   53.1980    8.6160  -40.8810 O   0  0  0  0  0  0  0  0  0  0  0  0
  1 22  1  0
  1 79  1  0
  1 83  1  0
  2  3  1  0
  2 11  1  0
  2 37  1  0
  2 79  1  0
  3 19  1  0
  3 38  1  0
  3 39  1  0
  4  5  1  0
  4  8  1  0
  4 41  1  0
  4 80  1  0
  5  6  1  0
  5 42  1  0
  5 43  1  0
  6  7  1  0
  6 15  1  0
  6 44  1  0
  7 81  1  0
  7 84  1  0
  8  9  1  0
  8 46  1  0
  9 10  1  0
  9 47  1  0
  9 48  1  0
 10 85  1  0
 10 86  1  0
 11 80  1  0
 11 87  1  0
 12 13  1  0
 12 49  1  0
 12 50  1  0
 12 85  1  0
 13 51  1  0
 13 52  1  0
 13 53  1  0
 14 15  1  0
 14 54  1  0
 14 55  1  0
 14 81  1  0
 15 56  1  0
 15 57  1  0
 16 17  1  0
 16 21  1  0
 16 58  1  0
 17 18  1  0
 17 59  1  0
 18 19  1  0
 18 60  1  0
 19 20  1  0
 20 21  1  0
 20 61  1  0
 21 62  1  0
 22 23  1  0
 22 63  1  0
 22 82  1  0
 23 27  1  0
 23 65  1  0
 23 66  1  0
 24 25  1  0
 24 29  1  0
 24 67  1  0
 25 26  1  0
 25 68  1  0
 26 27  1  0
 26 69  1  0
 27 28  1  0
 28 29  1  0
 28 70  1  0
 29 71  1  0
 30 31  1  0
 30 82  1  0
 30 88  1  0
 31 32  1  0
 31 72  1  0
 31 73  1  0
 32 74  1  0
 32 75  1  0
 32 89  1  0
 33 34  1  0
 33 76  1  0
 33 77  1  0
 33 89  1  0
 34 35  1  0
 35 78  1  0
 36 79  1  0
 40 80  1  0
 45 81  1  0
 64 82  1  0
M  END
$$$$
