7mb3_A_YVV_401
     RDKit          3D

 89 91  0  0  0  0  0  0  0  0999 V2000
   18.0360  -19.5000   -2.4350 C   0  0  0  0  0  3  0  0  0  0  0  0
   16.9490  -21.6720   -2.8090 C   0  0  0  0  0  0  0  0  0  0  0  0
   17.1040  -23.1900   -2.8670 C   0  0  0  0  0  0  0  0  0  0  0  0
   13.5090  -21.3630   -0.8450 C   0  0  0  0  0  0  0  0  0  0  0  0
   12.8010  -20.0360   -0.8920 C   0  0  0  0  0  0  0  0  0  0  0  0
   13.7710  -18.8950   -0.2790 C   0  0  0  0  0  0  0  0  0  0  0  0
   12.9370  -17.7340   -0.1210 C   0  0  0  0  0  3  0  0  0  0  0  0
   12.6450  -22.6040   -1.1260 C   0  0  0  0  0  3  0  0  0  0  0  0
   13.4270  -23.8970   -0.7940 C   0  0  0  0  0  0  0  0  0  0  0  0
   12.5690  -24.9790   -0.0900 C   0  0  0  0  0  3  0  0  0  0  0  0
   15.9570  -21.5330   -1.6280 C   0  0  0  0  0  3  0  0  0  0  0  0
   13.3760  -26.5520    1.5610 C   0  0  0  0  0  0  0  0  0  0  0  0
   14.7580  -27.2050    1.7330 C   0  0  0  0  0  0  0  0  0  0  0  0
   14.2200  -17.9310    1.9000 C   0  0  0  0  0  0  0  0  0  0  0  0
   14.1450  -19.2720    1.1760 C   0  0  0  0  0  0  0  0  0  0  0  0
   19.7710  -24.6520   -6.2750 C   0  0  0  0  0  3  0  0  0  0  0  0
   19.1840  -23.2420   -6.3360 C   0  0  0  0  0  3  0  0  0  0  0  0
   18.2860  -22.7370   -5.2020 C   0  0  0  0  0  3  0  0  0  0  0  0
   17.9960  -23.6520   -4.0150 C   0  0  0  0  0  3  0  0  0  0  0  0
   18.5790  -25.0620   -3.9560 C   0  0  0  0  0  3  0  0  0  0  0  0
   19.4730  -25.5600   -5.0890 C   0  0  0  0  0  3  0  0  0  0  0  0
   19.2730  -18.6080   -2.1810 C   0  0  0  0  0  0  0  0  0  0  0  0
   19.9990  -18.3910   -3.4900 C   0  0  0  0  0  0  0  0  0  0  0  0
   24.0930  -16.5120   -2.5260 C   0  0  0  0  0  3  0  0  0  0  0  0
   23.9560  -18.0310   -2.6410 C   0  0  0  0  0  3  0  0  0  0  0  0
   22.5890  -18.6580   -2.9630 C   0  0  0  0  0  3  0  0  0  0  0  0
   21.3830  -17.7470   -3.1660 C   0  0  0  0  0  3  0  0  0  0  0  0
   21.5100  -16.2320   -3.0450 C   0  0  0  0  0  3  0  0  0  0  0  0
   22.8760  -15.6050   -2.7320 C   0  0  0  0  0  3  0  0  0  0  0  0
   19.1820  -16.7570   -0.3950 C   0  0  0  0  0  3  0  0  0  0  0  0
   18.5550  -15.4010    0.0030 C   0  0  0  0  0  0  0  0  0  0  0  0
   19.3090  -14.7310    1.1690 C   0  0  0  0  0  0  0  0  0  0  0  0
   21.1080  -13.6700    0.0670 C   0  0  0  0  0  0  0  0  0  0  0  0
   22.6430  -13.5340    0.0900 C   0  0  0  0  0  2  0  0  0  0  0  0
   23.8200  -13.4270    0.0830 C   0  0  0  0  0  2  0  0  0  0  0  0
   18.9160  -21.3660   -2.4640 H   0  0  0  0  0  0  0  0  0  0  0  0
   16.6710  -21.3060   -3.6280 H   0  0  0  0  0  0  0  0  0  0  0  0
   16.2540  -23.5740   -2.9750 H   0  0  0  0  0  0  0  0  0  0  0  0
   17.4800  -23.4840   -2.0590 H   0  0  0  0  0  0  0  0  0  0  0  0
   14.2610  -21.4610   -2.7510 H   0  0  0  0  0  0  0  0  0  0  0  0
   13.8340  -21.3760    0.0360 H   0  0  0  0  0  0  0  0  0  0  0  0
   12.5900  -19.8240   -1.7820 H   0  0  0  0  0  0  0  0  0  0  0  0
   12.0110  -20.0830   -0.3860 H   0  0  0  0  0  0  0  0  0  0  0  0
   14.5430  -18.7500   -0.7930 H   0  0  0  0  0  0  0  0  0  0  0  0
   12.6170  -16.6480    1.6810 H   0  0  0  0  0  0  0  0  0  0  0  0
   11.8370  -22.5680   -0.6260 H   0  0  0  0  0  0  0  0  0  0  0  0
   13.7600  -24.2570   -1.5950 H   0  0  0  0  0  0  0  0  0  0  0  0
   14.1440  -23.6740   -0.2300 H   0  0  0  0  0  0  0  0  0  0  0  0
   12.7140  -27.1450    1.8630 H   0  0  0  0  0  0  0  0  0  0  0  0
   13.3420  -25.7610    2.0670 H   0  0  0  0  0  0  0  0  0  0  0  0
   15.0370  -27.5690    0.9130 H   0  0  0  0  0  0  0  0  0  0  0  0
   14.7040  -27.8870    2.3760 H   0  0  0  0  0  0  0  0  0  0  0  0
   15.3770  -26.5580    2.0150 H   0  0  0  0  0  0  0  0  0  0  0  0
   14.0280  -18.0370    2.8130 H   0  0  0  0  0  0  0  0  0  0  0  0
   15.0660  -17.5410    1.7860 H   0  0  0  0  0  0  0  0  0  0  0  0
   13.4800  -19.8150    1.5560 H   0  0  0  0  0  0  0  0  0  0  0  0
   14.9770  -19.7060    1.2000 H   0  0  0  0  0  0  0  0  0  0  0  0
   20.3120  -24.9570   -6.9660 H   0  0  0  0  0  0  0  0  0  0  0  0
   19.3720  -22.6910   -7.0600 H   0  0  0  0  0  0  0  0  0  0  0  0
   17.9230  -21.8820   -5.2370 H   0  0  0  0  0  0  0  0  0  0  0  0
   18.3910  -25.6150   -3.2330 H   0  0  0  0  0  0  0  0  0  0  0  0
   19.8350  -26.4150   -5.0550 H   0  0  0  0  0  0  0  0  0  0  0  0
   19.8660  -19.0020   -1.5680 H   0  0  0  0  0  0  0  0  0  0  0  0
   18.2050  -16.9010   -2.1680 H   0  0  0  0  0  0  0  0  0  0  0  0
   20.1240  -19.2130   -3.9270 H   0  0  0  0  0  0  0  0  0  0  0  0
   19.5010  -17.8170   -4.0410 H   0  0  0  0  0  0  0  0  0  0  0  0
   24.9200  -16.1370   -2.3300 H   0  0  0  0  0  0  0  0  0  0  0  0
   24.6990  -18.5750   -2.5170 H   0  0  0  0  0  0  0  0  0  0  0  0
   22.5000  -19.5800   -3.0320 H   0  0  0  0  0  0  0  0  0  0  0  0
   20.7640  -15.6900   -3.1610 H   0  0  0  0  0  0  0  0  0  0  0  0
   22.9640  -14.6820   -2.6670 H   0  0  0  0  0  0  0  0  0  0  0  0
   18.5760  -14.8280   -0.7400 H   0  0  0  0  0  0  0  0  0  0  0  0
   17.6640  -15.5450    0.2630 H   0  0  0  0  0  0  0  0  0  0  0  0
   18.9970  -13.8510    1.2720 H   0  0  0  0  0  0  0  0  0  0  0  0
   19.1480  -15.2130    1.9580 H   0  0  0  0  0  0  0  0  0  0  0  0
   20.7230  -12.8620    0.3500 H   0  0  0  0  0  0  0  0  0  0  0  0
   20.8280  -13.8610   -0.8080 H   0  0  0  0  0  0  0  0  0  0  0  0
   24.7300  -13.3470    0.0800 H   0  0  0  0  0  0  0  0  0  0  0  0
   18.1540  -20.9600   -2.5490 N   0  0  0  0  0  0  0  0  0  0  0  0
   14.5230  -21.4540   -1.9230 N   0  0  0  0  0  0  0  0  0  0  0  0
   13.1960  -17.1310    1.2520 N   0  0  0  0  0  0  0  0  0  0  0  0
   18.7740  -17.3390   -1.6810 N   0  0  0  0  0  0  0  0  0  0  0  0
   16.9630  -18.9880   -2.5360 O   0  0  0  0  0  1  0  0  0  0  0  0
   12.1750  -17.3470   -0.9540 O   0  0  0  0  0  1  0  0  0  0  0  0
   13.1410  -26.2450    0.2010 O   0  0  0  0  0  0  0  0  0  0  0  0
   11.4240  -24.7580    0.1880 O   0  0  0  0  0  1  0  0  0  0  0  0
   16.3610  -21.5490   -0.5040 O   0  0  0  0  0  1  0  0  0  0  0  0
   19.9640  -17.2880    0.3190 O   0  0  0  0  0  1  0  0  0  0  0  0
   20.6900  -14.7030    0.9220 O   0  0  0  0  0  0  0  0  0  0  0  0
  1 22  1  0
  1 79  1  0
  1 83  1  0
  2  3  1  0
  2 11  1  0
  2 37  1  0
  2 79  1  0
  3 19  1  0
  3 38  1  0
  3 39  1  0
  4  5  1  0
  4  8  1  0
  4 41  1  0
  4 80  1  0
  5  6  1  0
  5 42  1  0
  5 43  1  0
  6  7  1  0
  6 15  1  0
  6 44  1  0
  7 81  1  0
  7 84  1  0
  8  9  1  0
  8 46  1  0
  9 10  1  0
  9 47  1  0
  9 48  1  0
 10 85  1  0
 10 86  1  0
 11 80  1  0
 11 87  1  0
 12 13  1  0
 12 49  1  0
 12 50  1  0
 12 85  1  0
 13 51  1  0
 13 52  1  0
 13 53  1  0
 14 15  1  0
 14 54  1  0
 14 55  1  0
 14 81  1  0
 15 56  1  0
 15 57  1  0
 16 17  1  0
 16 21  1  0
 16 58  1  0
 17 18  1  0
 17 59  1  0
 18 19  1  0
 18 60  1  0
 19 20  1  0
 20 21  1  0
 20 61  1  0
 21 62  1  0
 22 23  1  0
 22 63  1  0
 22 82  1  0
 23 27  1  0
 23 65  1  0
 23 66  1  0
 24 25  1  0
 24 29  1  0
 24 67  1  0
 25 26  1  0
 25 68  1  0
 26 27  1  0
 26 69  1  0
 27 28  1  0
 28 29  1  0
 28 70  1  0
 29 71  1  0
 30 31  1  0
 30 82  1  0
 30 88  1  0
 31 32  1  0
 31 72  1  0
 31 73  1  0
 32 74  1  0
 32 75  1  0
 32 89  1  0
 33 34  1  0
 33 76  1  0
 33 77  1  0
 33 89  1  0
 34 35  1  0
 35 78  1  0
 36 79  1  0
 40 80  1  0
 45 81  1  0
 64 82  1  0
M  END
$$$$
