7nbs_C_SV6_402
     RDKit          3D

 49 53  0  0  0  0  0  0  0  0999 V2000
  -13.0550  -28.5770    0.7340 C   0  0  0  0  0  3  0  0  0  0  0  0
  -14.2570  -27.7210    0.6360 C   0  0  0  0  0  3  0  0  0  0  0  0
  -11.2550  -29.5720    1.9990 C   0  0  0  0  0  3  0  0  0  0  0  0
  -11.4110  -30.9160    2.6760 C   0  0  0  0  0  3  0  0  0  0  0  0
  -10.1980  -28.7480    2.7360 C   0  0  0  0  0  2  0  0  0  0  0  0
   -9.9830  -27.3600    2.1800 C   0  0  0  0  0  2  0  0  0  0  0  0
   -9.0380  -26.5540    3.0580 C   0  0  0  0  0  1  0  0  0  0  0  0
  -10.1140  -31.6650    2.6560 C   0  0  0  0  0  3  0  0  0  0  0  0
   -8.7860  -33.2060    1.2850 C   0  0  0  0  0  3  0  0  0  0  0  0
   -8.3610  -33.5250   -0.1590 C   0  0  0  0  0  2  0  0  0  0  0  0
   -7.6620  -32.4100    0.6220 C   0  0  0  0  0  2  0  0  0  0  0  0
  -13.3890  -25.4440    0.5780 C   0  0  0  0  0  3  0  0  0  0  0  0
  -13.0310  -24.1900   -0.2110 C   0  0  0  0  0  3  0  0  0  0  0  0
  -14.5890  -22.4590   -0.6400 C   0  0  0  0  0  3  0  0  0  0  0  0
  -15.4160  -21.2960   -0.1480 C   0  0  0  0  0  3  0  0  0  0  0  0
  -11.5530  -23.8520   -0.2050 C   0  0  0  0  0  0  0  0  0  0  0  0
  -15.3050  -28.3960   -0.2380 C   0  0  0  0  0  3  0  0  0  0  0  0
  -11.0930  -23.3760    1.1720 C   0  0  0  0  0  1  0  0  0  0  0  0
  -16.1980  -19.3550   -1.4290 C   0  0  0  0  0  3  0  0  0  0  0  0
  -10.7890  -25.1230   -0.6710 C   0  0  0  0  0  1  0  0  0  0  0  0
  -11.2630  -22.7360   -1.2250 C   0  0  0  0  0  1  0  0  0  0  0  0
  -16.6920  -28.4370    0.3740 C   0  0  0  0  0  2  0  0  0  0  0  0
  -17.3880  -27.1660   -0.0700 C   0  0  0  0  0  2  0  0  0  0  0  0
  -16.5040  -21.8340    0.7820 C   0  0  0  0  0  3  0  0  0  0  0  0
  -17.3730  -22.8610    0.0820 C   0  0  0  0  0  2  0  0  0  0  0  0
  -18.5450  -23.3410    0.9770 C   0  0  0  0  0  2  0  0  0  0  0  0
  -19.3620  -22.2040    1.5510 C   0  0  0  0  0  2  0  0  0  0  0  0
  -18.4480  -21.2670    2.2550 C   0  0  0  0  0  2  0  0  0  0  0  0
  -17.4110  -20.7020    1.2980 C   0  0  0  0  0  2  0  0  0  0  0  0
  -16.5210  -18.9050   -2.8360 C   0  0  0  0  0  3  0  0  0  0  0  0
  -17.1360  -19.4420   -5.0290 C   0  0  0  0  0  2  0  0  0  0  0  0
  -17.0760  -18.0720   -5.3260 C   0  0  0  0  0  2  0  0  0  0  0  0
  -16.4390  -17.5450   -3.1600 C   0  0  0  0  0  2  0  0  0  0  0  0
  -14.2000  -26.6620   -1.5130 C   0  0  0  0  0  2  0  0  0  0  0  0
  -16.7570  -26.7610   -1.3890 C   0  0  0  0  0  2  0  0  0  0  0  0
  -15.4320  -27.5360   -1.5020 C   0  0  0  0  0  3  0  0  0  0  0  0
  -13.8870  -26.4910   -0.0850 N   0  0  0  0  0  0  0  0  0  0  0  0
   -9.9140  -32.3540    1.5040 N   0  0  0  0  0  2  0  0  0  0  0  0
  -13.7800  -23.0360    0.2160 N   0  0  0  0  0  2  0  0  0  0  0  0
  -15.9580  -20.6530   -1.3170 N   0  0  0  0  0  2  0  0  0  0  0  0
  -12.5640  -28.9150    1.9240 N   0  0  0  0  0  2  0  0  0  0  0  0
  -16.8470  -19.8470   -3.7730 N   0  0  0  0  0  2  0  0  0  0  0  0
  -16.7280  -17.1630   -4.4170 N   0  0  0  0  0  2  0  0  0  0  0  0
  -12.5470  -28.8920   -0.3430 O   0  0  0  0  0  1  0  0  0  0  0  0
  -12.2710  -31.7330    1.9350 O   0  0  0  0  0  1  0  0  0  0  0  0
   -9.3610  -31.6370    3.6030 O   0  0  0  0  0  1  0  0  0  0  0  0
  -13.1900  -25.4670    1.7890 O   0  0  0  0  0  1  0  0  0  0  0  0
  -14.7380  -22.8700   -1.7860 O   0  0  0  0  0  1  0  0  0  0  0  0
  -16.1210  -18.5530   -0.4950 O   0  0  0  0  0  1  0  0  0  0  0  0
  1  2  1  0
  1 41  1  0
  1 44  1  0
  2 17  1  0
  2 37  1  0
  3  4  1  0
  3  5  1  0
  3 41  1  0
  4  8  1  0
  4 45  1  0
  5  6  1  0
  6  7  1  0
  8 38  1  0
  8 46  1  0
  9 10  1  0
  9 11  1  0
  9 38  1  0
 10 11  1  0
 12 13  1  0
 12 37  1  0
 12 47  1  0
 13 16  1  0
 13 39  1  0
 14 15  1  0
 14 39  1  0
 14 48  1  0
 15 24  1  0
 15 40  1  0
 16 18  1  0
 16 20  1  0
 16 21  1  0
 17 22  1  0
 17 36  1  0
 19 30  1  0
 19 40  1  0
 19 49  1  0
 22 23  1  0
 23 35  1  0
 24 25  1  0
 24 29  1  0
 25 26  1  0
 26 27  1  0
 27 28  1  0
 28 29  1  0
 30 33  1  0
 30 42  1  0
 31 32  1  0
 31 42  1  0
 32 43  1  0
 33 43  1  0
 34 36  1  0
 34 37  1  0
 35 36  1  0
M  END
$$$$
