7nby_B_U88_401
     RDKit          3D

  9  9  0  0  0  0  0  0  0  0999 V2000
    9.9660   12.0450  -19.1510 C   0  0  0  0  0  2  0  0  0  0  0  0
   11.6640   12.5640  -20.5820 C   0  0  0  0  0  3  0  0  0  0  0  0
   10.7480   12.0540  -21.4860 C   0  0  0  0  0  3  0  0  0  0  0  0
   12.5100   12.8950  -20.7820 H   0  0  0  0  0  0  0  0  0  0  0  0
   11.2130   12.5530  -19.2440 N   0  0  0  0  0  2  0  0  0  0  0  0
   10.9000   11.9210  -22.9590 N   0  0  0  0  0  0  0  0  0  0  0  0
    9.9080   11.6860  -23.6240 O   0  0  0  0  0  1  0  0  0  0  0  0
   12.0140   12.0620  -23.4380 O   0  0  0  0  0  1  0  0  0  0  0  0
    9.3160   11.5570  -20.6830 S   0  0  0  0  0  0  0  0  0  0  0  0
  1  5  1  0
  1  9  1  0
  2  3  1  0
  2  4  1  0
  2  5  1  0
  3  6  1  0
  3  9  1  0
  6  7  1  0
  6  8  1  0
M  END
$$$$
