7nby_A_U88_403
     RDKit          3D

  9  9  0  0  0  0  0  0  0  0999 V2000
   21.3740    3.2690  -25.7610 C   0  0  0  0  0  2  0  0  0  0  0  0
   23.3590    3.8330  -26.7000 C   0  0  0  0  0  3  0  0  0  0  0  0
   22.4980    4.3480  -27.6610 C   0  0  0  0  0  3  0  0  0  0  0  0
   24.2880    3.8670  -26.7230 H   0  0  0  0  0  0  0  0  0  0  0  0
   22.7100    3.2100  -25.6070 N   0  0  0  0  0  2  0  0  0  0  0  0
   22.8400    5.0620  -28.9290 N   0  0  0  0  0  0  0  0  0  0  0  0
   23.9550    5.5490  -29.0320 O   0  0  0  0  0  1  0  0  0  0  0  0
   21.9920    5.1290  -29.8050 O   0  0  0  0  0  1  0  0  0  0  0  0
   20.8710    4.0660  -27.2220 S   0  0  0  0  0  0  0  0  0  0  0  0
  1  5  1  0
  1  9  1  0
  2  3  1  0
  2  4  1  0
  2  5  1  0
  3  6  1  0
  3  9  1  0
  6  7  1  0
  6  8  1  0
M  END
$$$$
