7nby_A_U88_402
     RDKit          3D

  9  9  0  0  0  0  0  0  0  0999 V2000
  -11.8890  -10.5780  -19.7320 C   0  0  0  0  0  2  0  0  0  0  0  0
  -13.0840   -8.9180  -18.7400 C   0  0  0  0  0  3  0  0  0  0  0  0
  -13.3070   -9.9360  -17.8210 C   0  0  0  0  0  3  0  0  0  0  0  0
  -13.4150   -8.0510  -18.6890 H   0  0  0  0  0  0  0  0  0  0  0  0
  -12.2670   -9.2920  -19.8450 N   0  0  0  0  0  2  0  0  0  0  0  0
  -14.0950   -9.9330  -16.5580 N   0  0  0  0  0  0  0  0  0  0  0  0
  -14.8610   -8.9890  -16.3560 O   0  0  0  0  0  1  0  0  0  0  0  0
  -13.9420  -10.8800  -15.7850 O   0  0  0  0  0  1  0  0  0  0  0  0
  -12.5040  -11.3600  -18.3110 S   0  0  0  0  0  0  0  0  0  0  0  0
  1  5  1  0
  1  9  1  0
  2  3  1  0
  2  4  1  0
  2  5  1  0
  3  6  1  0
  3  9  1  0
  6  7  1  0
  6  8  1  0
M  END
$$$$
