7nby_B_U88_402
     RDKit          3D

  9  9  0  0  0  0  0  0  0  0999 V2000
  -12.3700  -12.3130   -0.9170 C   0  0  0  0  0  2  0  0  0  0  0  0
  -12.5360  -11.1680    1.0400 C   0  0  0  0  0  3  0  0  0  0  0  0
  -13.8790  -11.2250    0.6970 C   0  0  0  0  0  3  0  0  0  0  0  0
  -12.1810  -10.7660    1.7990 H   0  0  0  0  0  0  0  0  0  0  0  0
  -11.6730  -11.7950    0.1120 N   0  0  0  0  0  2  0  0  0  0  0  0
  -15.0570  -10.6840    1.4360 N   0  0  0  0  0  0  0  0  0  0  0  0
  -16.1700  -11.0550    1.1020 O   0  0  0  0  0  1  0  0  0  0  0  0
  -14.8530   -9.9030    2.3490 O   0  0  0  0  0  1  0  0  0  0  0  0
  -14.0810  -12.0560   -0.7830 S   0  0  0  0  0  0  0  0  0  0  0  0
  1  5  1  0
  1  9  1  0
  2  3  1  0
  2  4  1  0
  2  5  1  0
  3  6  1  0
  3  9  1  0
  6  7  1  0
  6  8  1  0
M  END
$$$$
