7ng6_B_ALD_401
     RDKit          3D

 76 76  0  0  0  0  0  0  0  0999 V2000
   21.1680  -15.1570    1.1240 C   0  0  0  0  0  3  0  0  0  0  0  0
   20.5630   -8.8030   -2.1460 C   0  0  0  0  0  0  0  0  0  0  0  0
   19.7310   -7.5540   -2.1090 C   0  0  0  0  0  3  0  0  0  0  0  0
   19.7150   -5.1470   -1.8280 C   0  0  0  0  0  0  0  0  0  0  0  0
   19.5490   -4.6490   -3.2450 C   0  0  0  0  0  3  0  0  0  0  0  0
   17.9930   -4.0110   -5.0360 C   0  0  0  0  0  0  0  0  0  0  0  0
   16.8970   -4.7540   -5.7510 C   0  0  0  0  0  0  0  0  0  0  0  0
   17.1710   -6.2450   -5.9140 C   0  0  0  0  0  0  0  0  0  0  0  0
   20.3260  -14.0770    1.3260 C   0  0  0  0  0  3  0  0  0  0  0  0
   18.5880   -6.5730   -6.3380 C   0  0  0  0  0  0  0  0  0  0  0  0
   16.1330   -6.8600   -6.8580 C   0  0  0  0  0  0  0  0  0  0  0  0
   17.6140   -2.5310   -4.8460 C   0  0  0  0  0  3  0  0  0  0  0  0
   20.5200   -4.1240   -1.0380 C   0  0  0  0  0  0  0  0  0  0  0  0
   20.6320   -4.5020    0.4310 C   0  0  0  0  0  0  0  0  0  0  0  0
   19.2890   -4.3060    1.1480 C   0  0  0  0  0  0  0  0  0  0  0  0
   21.7160   -3.6800    1.1120 C   0  0  0  0  0  0  0  0  0  0  0  0
   20.8530  -12.8210    1.5640 C   0  0  0  0  0  3  0  0  0  0  0  0
   20.6670   -9.2400   -3.6110 C   0  0  0  0  0  0  0  0  0  0  0  0
   21.3310  -10.6010   -3.7740 C   0  0  0  0  0  0  0  0  0  0  0  0
   20.8850  -11.2650   -5.0730 C   0  0  0  0  0  0  0  0  0  0  0  0
   22.8510  -10.4590   -3.7050 C   0  0  0  0  0  0  0  0  0  0  0  0
   22.2390  -12.6340    1.6120 C   0  0  0  0  0  3  0  0  0  0  0  0
   23.0810  -13.7130    1.4070 C   0  0  0  0  0  3  0  0  0  0  0  0
   22.5440  -14.9800    1.1560 C   0  0  0  0  0  3  0  0  0  0  0  0
   19.9280  -11.6460    1.8040 C   0  0  0  0  0  0  0  0  0  0  0  0
   20.2950  -10.1250   -0.1350 C   0  0  0  0  0  3  0  0  0  0  0  0
   20.7530  -16.1400    0.9400 H   0  0  0  0  0  0  0  0  0  0  0  0
   21.5240   -8.5360   -1.6840 H   0  0  0  0  0  0  0  0  0  0  0  0
   18.7090   -5.2500   -1.3980 H   0  0  0  0  0  0  0  0  0  0  0  0
   18.8830   -4.0920   -5.6750 H   0  0  0  0  0  0  0  0  0  0  0  0
   16.7600   -4.3110   -6.7400 H   0  0  0  0  0  0  0  0  0  0  0  0
   15.9660   -4.6260   -5.1960 H   0  0  0  0  0  0  0  0  0  0  0  0
   17.0710   -6.7000   -4.9180 H   0  0  0  0  0  0  0  0  0  0  0  0
   19.2520  -14.2150    1.2970 H   0  0  0  0  0  0  0  0  0  0  0  0
   18.6290   -7.5700   -6.6910 H   0  0  0  0  0  0  0  0  0  0  0  0
   19.2380   -6.4640   -5.5100 H   0  0  0  0  0  0  0  0  0  0  0  0
   18.8870   -5.9130   -7.1100 H   0  0  0  0  0  0  0  0  0  0  0  0
   16.6210   -7.4850   -7.5600 H   0  0  0  0  0  0  0  0  0  0  0  0
   15.6200   -6.0880   -7.3690 H   0  0  0  0  0  0  0  0  0  0  0  0
   15.4410   -7.4320   -6.2970 H   0  0  0  0  0  0  0  0  0  0  0  0
   18.4210   -2.0180   -4.3200 H   0  0  0  0  0  0  0  0  0  0  0  0
   20.0420   -3.1470   -1.1230 H   0  0  0  0  0  0  0  0  0  0  0  0
   21.5220   -4.0460   -1.4670 H   0  0  0  0  0  0  0  0  0  0  0  0
   20.9050   -5.5650    0.4900 H   0  0  0  0  0  0  0  0  0  0  0  0
   19.1100   -5.1280    1.7920 H   0  0  0  0  0  0  0  0  0  0  0  0
   18.5120   -4.2430    0.4320 H   0  0  0  0  0  0  0  0  0  0  0  0
   19.3190   -3.4130    1.7160 H   0  0  0  0  0  0  0  0  0  0  0  0
   22.6560   -3.9090    0.6800 H   0  0  0  0  0  0  0  0  0  0  0  0
   21.7360   -3.9090    2.1450 H   0  0  0  0  0  0  0  0  0  0  0  0
   21.5100   -2.6490    0.9820 H   0  0  0  0  0  0  0  0  0  0  0  0
   21.2420   -8.4940   -4.1640 H   0  0  0  0  0  0  0  0  0  0  0  0
   19.6640   -9.2780   -4.0430 H   0  0  0  0  0  0  0  0  0  0  0  0
   21.0170  -11.2520   -2.9460 H   0  0  0  0  0  0  0  0  0  0  0  0
   20.0060  -11.8300   -4.8960 H   0  0  0  0  0  0  0  0  0  0  0  0
   20.6860  -10.5210   -5.7990 H   0  0  0  0  0  0  0  0  0  0  0  0
   21.6510  -11.9070   -5.4240 H   0  0  0  0  0  0  0  0  0  0  0  0
   23.1440  -10.2910   -2.7010 H   0  0  0  0  0  0  0  0  0  0  0  0
   23.1570   -9.6430   -4.3050 H   0  0  0  0  0  0  0  0  0  0  0  0
   23.3040  -11.3480   -4.0610 H   0  0  0  0  0  0  0  0  0  0  0  0
   22.6510  -11.6510    1.8060 H   0  0  0  0  0  0  0  0  0  0  0  0
   24.1540  -13.5770    1.4420 H   0  0  0  0  0  0  0  0  0  0  0  0
   23.2030  -15.8240    0.9880 H   0  0  0  0  0  0  0  0  0  0  0  0
   19.0600  -11.9630    2.3880 H   0  0  0  0  0  0  0  0  0  0  0  0
   20.4460  -10.8690    2.3690 H   0  0  0  0  0  0  0  0  0  0  0  0
   19.4720  -10.6150   -1.9260 H   0  0  0  0  0  0  0  0  0  0  0  0
   21.2940   -6.5090   -1.3500 H   0  0  0  0  0  0  0  0  0  0  0  0
   17.5250   -4.9490   -3.1690 H   0  0  0  0  0  0  0  0  0  0  0  0
   18.1820   -1.3760   -6.3460 H   0  0  0  0  0  0  0  0  0  0  0  0
   20.0410   -9.9470   -1.4250 N   0  0  0  0  0  0  0  0  0  0  0  0
   20.3570   -6.4560   -1.7230 N   0  0  0  0  0  0  0  0  0  0  0  0
   18.2910   -4.5890   -3.7220 N   0  0  0  0  0  0  0  0  0  0  0  0
   21.1380   -9.5070    0.4930 O   0  0  0  0  0  1  0  0  0  0  0  0
   18.5310   -7.5590   -2.4300 O   0  0  0  0  0  1  0  0  0  0  0  0
   17.4100   -1.9120   -6.1210 O   0  0  0  0  0  0  0  0  0  0  0  0
   20.5170   -4.3440   -3.8940 O   0  0  0  0  0  1  0  0  0  0  0  0
   19.5090  -11.1390    0.5420 O   0  0  0  0  0  0  0  0  0  0  0  0
  1  9  1  0
  1 24  1  0
  1 27  1  0
  2  3  1  0
  2 18  1  0
  2 28  1  0
  2 69  1  0
  3 70  1  0
  3 73  1  0
  4  5  1  0
  4 13  1  0
  4 29  1  0
  4 70  1  0
  5 71  1  0
  5 75  1  0
  6  7  1  0
  6 12  1  0
  6 30  1  0
  6 71  1  0
  7  8  1  0
  7 31  1  0
  7 32  1  0
  8 10  1  0
  8 11  1  0
  8 33  1  0
  9 17  1  0
  9 34  1  0
 10 35  1  0
 10 36  1  0
 10 37  1  0
 11 38  1  0
 11 39  1  0
 11 40  1  0
 12 41  1  0
 12 74  1  0
 13 14  1  0
 13 42  1  0
 13 43  1  0
 14 15  1  0
 14 16  1  0
 14 44  1  0
 15 45  1  0
 15 46  1  0
 15 47  1  0
 16 48  1  0
 16 49  1  0
 16 50  1  0
 17 22  1  0
 17 25  1  0
 18 19  1  0
 18 51  1  0
 18 52  1  0
 19 20  1  0
 19 21  1  0
 19 53  1  0
 20 54  1  0
 20 55  1  0
 20 56  1  0
 21 57  1  0
 21 58  1  0
 21 59  1  0
 22 23  1  0
 22 60  1  0
 23 24  1  0
 23 61  1  0
 24 62  1  0
 25 63  1  0
 25 64  1  0
 25 76  1  0
 26 69  1  0
 26 72  1  0
 26 76  1  0
 65 69  1  0
 66 70  1  0
 67 71  1  0
 68 74  1  0
M  END
$$$$
