7sf1_A_8ZI_401
     RDKit          3D

 39 41  0  0  0  0  0  0  0  0999 V2000
    9.4470  -27.0690   21.8530 C   0  0  0  0  0  3  0  0  0  0  0  0
   10.1330  -22.9310   22.9620 C   0  0  0  0  0  3  0  0  0  0  0  0
    8.6840  -22.4100   23.0860 C   0  0  0  0  0  0  0  0  0  0  0  0
    8.1420  -21.8490   21.7710 C   0  0  0  0  0  1  0  0  0  0  0  0
    7.7630  -23.5530   23.5260 C   0  0  0  0  0  1  0  0  0  0  0  0
    8.6470  -21.2910   24.1380 C   0  0  0  0  0  1  0  0  0  0  0  0
   12.1740  -21.5830   23.0320 C   0  0  0  0  0  3  0  0  0  0  0  0
   13.0040  -20.4990   22.3690 C   0  0  0  0  0  2  0  0  0  0  0  0
   12.6940  -19.0460   22.8050 C   0  0  0  0  0  0  0  0  0  0  0  0
   12.7170  -18.9340   24.3360 C   0  0  0  0  0  1  0  0  0  0  0  0
   11.3270  -18.5660   22.2940 C   0  0  0  0  0  1  0  0  0  0  0  0
   10.8720  -26.5660   21.9990 C   0  0  0  0  0  3  0  0  0  0  0  0
   13.7760  -18.1320   22.2280 C   0  0  0  0  0  1  0  0  0  0  0  0
    7.7500  -28.0420   20.3650 C   0  0  0  0  0  3  0  0  0  0  0  0
    7.9390  -29.5760   20.1510 C   0  0  0  0  0  3  0  0  0  0  0  0
    6.5900  -30.2780   20.0990 C   0  0  0  0  0  3  0  0  0  0  0  0
    7.0720  -27.2700   19.2260 C   0  0  0  0  0  2  0  0  0  0  0  0
    6.7560  -25.8040   19.5340 C   0  0  0  0  0  3  0  0  0  0  0  0
    5.5820  -25.5040   20.4570 C   0  0  0  0  0  2  0  0  0  0  0  0
    4.9930  -24.1770   19.9210 C   0  0  0  0  0  2  0  0  0  0  0  0
    6.4220  -25.0210   18.2710 C   0  0  0  0  0  3  0  0  0  0  0  0
   11.6640  -27.4870   22.8970 C   0  0  0  0  0  3  0  0  0  0  0  0
   11.9560  -26.7330   24.1800 C   0  0  0  0  0  3  0  0  0  0  0  0
   13.0880  -27.1230   23.2520 C   0  0  0  0  0  0  0  0  0  0  0  0
   13.8150  -26.0680   22.4410 C   0  0  0  0  0  1  0  0  0  0  0  0
   14.0010  -28.2570   23.6820 C   0  0  0  0  0  1  0  0  0  0  0  0
   11.2860  -25.3750   24.1090 C   0  0  0  0  0  2  0  0  0  0  0  0
   10.2920  -24.2000   22.1160 C   0  0  0  0  0  3  0  0  0  0  0  0
   10.8160  -25.2900   22.7170 N   0  0  0  0  0  0  0  0  0  0  0  0
   11.0340  -21.9190   22.4240 N   0  0  0  0  0  2  0  0  0  0  0  0
    9.0830  -27.4850   20.6410 N   0  0  0  0  0  2  0  0  0  0  0  0
    6.2350  -31.2580   21.1460 N   0  0  0  0  0  1  0  0  0  0  0  0
    5.4290  -24.1590   18.5280 N   0  0  0  0  0  2  0  0  0  0  0  0
    8.6670  -26.9750   22.7930 O   0  0  0  0  0  1  0  0  0  0  0  0
   12.5260  -22.1220   24.0780 O   0  0  0  0  0  1  0  0  0  0  0  0
    9.9440  -24.2170   20.9250 O   0  0  0  0  0  1  0  0  0  0  0  0
    5.8230  -30.0200   19.2200 O   0  0  0  0  0  1  0  0  0  0  0  0
    8.7030  -30.1370   21.2270 O   0  0  0  0  0  1  0  0  0  0  0  0
    6.9950  -25.1530   17.1810 O   0  0  0  0  0  1  0  0  0  0  0  0
  1 12  1  0
  1 31  1  0
  1 34  1  0
  2  3  1  0
  2 28  1  0
  2 30  1  0
  3  4  1  0
  3  5  1  0
  3  6  1  0
  7  8  1  0
  7 30  1  0
  7 35  1  0
  8  9  1  0
  9 10  1  0
  9 11  1  0
  9 13  1  0
 12 22  1  0
 12 29  1  0
 14 15  1  0
 14 17  1  0
 14 31  1  0
 15 16  1  0
 15 38  1  0
 16 32  1  0
 16 37  1  0
 17 18  1  0
 18 19  1  0
 18 21  1  0
 19 20  1  0
 20 33  1  0
 21 33  1  0
 21 39  1  0
 22 23  1  0
 22 24  1  0
 23 24  1  0
 23 27  1  0
 24 25  1  0
 24 26  1  0
 27 29  1  0
 28 29  1  0
 28 36  1  0
M  END
$$$$
