7sf3_A_90H_401
     RDKit          3D

 39 41  0  0  0  0  0  0  0  0999 V2000
   19.2120   14.3230   25.6200 C   0  0  0  0  0  3  0  0  0  0  0  0
   19.9690   15.6110   29.7080 C   0  0  0  0  0  3  0  0  0  0  0  0
   20.5920   14.3260   30.2490 C   0  0  0  0  0  0  0  0  0  0  0  0
   19.5600   13.2630   30.6260 C   0  0  0  0  0  1  0  0  0  0  0  0
   21.5240   13.7620   29.1780 C   0  0  0  0  0  1  0  0  0  0  0  0
   21.4160   14.6670   31.5050 C   0  0  0  0  0  1  0  0  0  0  0  0
   19.4770   17.5000   31.1610 C   0  0  0  0  0  3  0  0  0  0  0  0
   18.4510   18.1260   32.1040 C   0  0  0  0  0  0  0  0  0  0  0  0
   18.1290   12.3800   24.5110 C   0  0  0  0  0  3  0  0  0  0  0  0
   17.9080   12.5430   22.9840 C   0  0  0  0  0  3  0  0  0  0  0  0
   18.2660   11.3010   22.1980 C   0  0  0  0  0  3  0  0  0  0  0  0
   19.0030   15.7640   26.0500 C   0  0  0  0  0  3  0  0  0  0  0  0
   19.7290   10.4220   20.4400 C   0  0  0  0  0  1  0  0  0  0  0  0
   17.0710   11.5420   25.2380 C   0  0  0  0  0  2  0  0  0  0  0  0
   17.4140   11.3200   26.7100 C   0  0  0  0  0  3  0  0  0  0  0  0
   18.7000   10.5580   27.0150 C   0  0  0  0  0  2  0  0  0  0  0  0
   18.3870    9.7390   28.2610 C   0  0  0  0  0  2  0  0  0  0  0  0
   16.3510   10.5320   27.4450 C   0  0  0  0  0  3  0  0  0  0  0  0
   19.6620   16.7140   25.0730 C   0  0  0  0  0  3  0  0  0  0  0  0
   20.7980   17.4180   25.7960 C   0  0  0  0  0  3  0  0  0  0  0  0
   19.6090   18.2070   25.3330 C   0  0  0  0  0  0  0  0  0  0  0  0
   18.6730   18.8480   26.3450 C   0  0  0  0  0  1  0  0  0  0  0  0
   19.8030   19.0350   24.0730 C   0  0  0  0  0  1  0  0  0  0  0  0
   20.8050   16.9550   27.2260 C   0  0  0  0  0  2  0  0  0  0  0  0
   19.1870   15.4270   28.4240 C   0  0  0  0  0  3  0  0  0  0  0  0
   18.7670   17.9340   33.3640 F   0  0  0  0  0  0  0  0  0  0  0  0
   18.3050   19.4200   31.9060 F   0  0  0  0  0  0  0  0  0  0  0  0
   17.2630   17.6030   31.9300 F   0  0  0  0  0  0  0  0  0  0  0  0
   19.6710   16.0170   27.3240 N   0  0  0  0  0  0  0  0  0  0  0  0
   19.1400   16.3060   30.6680 N   0  0  0  0  0  2  0  0  0  0  0  0
   18.1370   13.7230   25.0950 N   0  0  0  0  0  2  0  0  0  0  0  0
   19.2370   11.4660   21.3090 N   0  0  0  0  0  2  0  0  0  0  0  0
   16.9420    9.5860   28.1800 N   0  0  0  0  0  2  0  0  0  0  0  0
   20.2970   13.7860   25.7840 O   0  0  0  0  0  1  0  0  0  0  0  0
   20.4950   18.1170   30.8910 O   0  0  0  0  0  1  0  0  0  0  0  0
   18.1460   14.7710   28.3780 O   0  0  0  0  0  1  0  0  0  0  0  0
   18.8420   13.5120   22.5460 O   0  0  0  0  0  1  0  0  0  0  0  0
   17.6610   10.2640   22.3930 O   0  0  0  0  0  1  0  0  0  0  0  0
   15.1530   10.7590   27.3880 O   0  0  0  0  0  1  0  0  0  0  0  0
  1 12  1  0
  1 31  1  0
  1 34  1  0
  2  3  1  0
  2 25  1  0
  2 30  1  0
  3  4  1  0
  3  5  1  0
  3  6  1  0
  7  8  1  0
  7 30  1  0
  7 35  1  0
  8 26  1  0
  8 27  1  0
  8 28  1  0
  9 10  1  0
  9 14  1  0
  9 31  1  0
 10 11  1  0
 10 37  1  0
 11 32  1  0
 11 38  1  0
 12 19  1  0
 12 29  1  0
 13 32  1  0
 14 15  1  0
 15 16  1  0
 15 18  1  0
 16 17  1  0
 17 33  1  0
 18 33  1  0
 18 39  1  0
 19 20  1  0
 19 21  1  0
 20 21  1  0
 20 24  1  0
 21 22  1  0
 21 23  1  0
 24 29  1  0
 25 29  1  0
 25 36  1  0
M  END
$$$$
