7sfh_A_91I_401
     RDKit          3D

 34 37  0  0  0  0  0  0  0  0999 V2000
  -19.6120   17.7580  -27.5910 C   0  0  0  0  0  3  0  0  0  0  0  0
  -20.3450   15.9830  -23.6460 C   0  0  0  0  0  2  0  0  0  0  0  0
  -19.5570   14.8320  -23.0500 C   0  0  0  0  0  2  0  0  0  0  0  0
  -20.2070   14.1050  -21.9100 C   0  0  0  0  0  3  0  0  0  0  0  0
  -19.5510   13.0350  -21.3350 C   0  0  0  0  0  2  0  0  0  0  0  0
  -20.1180   12.3730  -20.2650 C   0  0  0  0  0  2  0  0  0  0  0  0
  -21.3520   12.7260  -19.8000 C   0  0  0  0  0  2  0  0  0  0  0  0
  -22.0360   13.7530  -20.3820 C   0  0  0  0  0  2  0  0  0  0  0  0
  -21.4630   14.4560  -21.4230 C   0  0  0  0  0  2  0  0  0  0  0  0
  -18.4800   19.6430  -28.6910 C   0  0  0  0  0  3  0  0  0  0  0  0
  -18.1640   19.5210  -30.2000 C   0  0  0  0  0  3  0  0  0  0  0  0
  -19.4950   16.2700  -27.3070 C   0  0  0  0  0  3  0  0  0  0  0  0
  -18.4880   20.8200  -30.8890 C   0  0  0  0  0  3  0  0  0  0  0  0
  -17.4890   20.5410  -27.9480 C   0  0  0  0  0  2  0  0  0  0  0  0
  -17.8340   20.8070  -26.4840 C   0  0  0  0  0  3  0  0  0  0  0  0
  -19.0450   21.6590  -26.2440 C   0  0  0  0  0  2  0  0  0  0  0  0
  -18.7410   22.3830  -24.9770 C   0  0  0  0  0  2  0  0  0  0  0  0
  -16.7440   21.5490  -25.7360 C   0  0  0  0  0  3  0  0  0  0  0  0
  -20.2130   15.4630  -28.3610 C   0  0  0  0  0  3  0  0  0  0  0  0
  -21.3980   14.8030  -27.7050 C   0  0  0  0  0  3  0  0  0  0  0  0
  -20.2540   13.9610  -28.2150 C   0  0  0  0  0  0  0  0  0  0  0  0
  -19.3260   13.2470  -27.2570 C   0  0  0  0  0  1  0  0  0  0  0  0
  -20.4620   13.1730  -29.5000 C   0  0  0  0  0  1  0  0  0  0  0  0
  -21.4450   15.2360  -26.2620 C   0  0  0  0  0  2  0  0  0  0  0  0
  -19.6800   16.4280  -24.9200 C   0  0  0  0  0  3  0  0  0  0  0  0
  -20.1810   15.9630  -26.0590 N   0  0  0  0  0  0  0  0  0  0  0  0
  -18.5210   18.3120  -28.0800 N   0  0  0  0  0  2  0  0  0  0  0  0
  -19.4820   20.7880  -31.9270 N   0  0  0  0  0  1  0  0  0  0  0  0
  -17.2840   22.4820  -25.0150 N   0  0  0  0  0  2  0  0  0  0  0  0
  -20.6320   18.4180  -27.4060 O   0  0  0  0  0  1  0  0  0  0  0  0
  -18.7030   17.1980  -24.9400 O   0  0  0  0  0  1  0  0  0  0  0  0
  -19.1210   18.5690  -30.7130 O   0  0  0  0  0  1  0  0  0  0  0  0
  -17.8850   21.8490  -30.7100 O   0  0  0  0  0  1  0  0  0  0  0  0
  -15.5370   21.3180  -25.8060 O   0  0  0  0  0  1  0  0  0  0  0  0
  1 12  1  0
  1 27  1  0
  1 30  1  0
  2  3  1  0
  2 25  1  0
  3  4  1  0
  4  5  1  0
  4  9  1  0
  5  6  1  0
  6  7  1  0
  7  8  1  0
  8  9  1  0
 10 11  1  0
 10 14  1  0
 10 27  1  0
 11 13  1  0
 11 32  1  0
 12 19  1  0
 12 26  1  0
 13 28  1  0
 13 33  1  0
 14 15  1  0
 15 16  1  0
 15 18  1  0
 16 17  1  0
 17 29  1  0
 18 29  1  0
 18 34  1  0
 19 20  1  0
 19 21  1  0
 20 21  1  0
 20 24  1  0
 21 22  1  0
 21 23  1  0
 24 26  1  0
 25 26  1  0
 25 31  1  0
M  END
$$$$
