7sfi_A_91Z_401
     RDKit          3D

 37 40  0  0  0  0  0  0  0  0999 V2000
  -19.2460   17.7410  -27.1480 C   0  0  0  0  0  3  0  0  0  0  0  0
  -20.0700   16.5680  -22.9550 C   0  0  0  0  0  2  0  0  0  0  0  0
  -19.8660   17.0340  -20.4930 C   0  0  0  0  0  3  0  0  0  0  0  0
  -19.0980   17.6120  -19.4800 C   0  0  0  0  0  3  0  0  0  0  0  0
  -19.3310   17.3730  -18.1340 C   0  0  0  0  0  2  0  0  0  0  0  0
  -20.3450   16.5040  -17.8080 C   0  0  0  0  0  3  0  0  0  0  0  0
  -21.1190   15.8730  -18.7470 C   0  0  0  0  0  2  0  0  0  0  0  0
  -20.8940   16.1760  -20.0710 C   0  0  0  0  0  3  0  0  0  0  0  0
  -18.1740   19.6520  -28.2600 C   0  0  0  0  0  3  0  0  0  0  0  0
  -17.9200   19.5380  -29.7750 C   0  0  0  0  0  3  0  0  0  0  0  0
  -18.2260   20.8410  -30.4850 C   0  0  0  0  0  3  0  0  0  0  0  0
  -19.0720   16.3170  -26.6410 C   0  0  0  0  0  3  0  0  0  0  0  0
  -17.1700   20.5070  -27.4980 C   0  0  0  0  0  2  0  0  0  0  0  0
  -17.5180   20.7380  -26.0290 C   0  0  0  0  0  3  0  0  0  0  0  0
  -18.7460   21.6200  -25.7290 C   0  0  0  0  0  2  0  0  0  0  0  0
  -18.3700   22.3620  -24.4590 C   0  0  0  0  0  2  0  0  0  0  0  0
  -16.3820   21.4530  -25.3180 C   0  0  0  0  0  3  0  0  0  0  0  0
  -19.7380   15.3530  -27.6150 C   0  0  0  0  0  3  0  0  0  0  0  0
  -20.9130   14.7260  -26.8910 C   0  0  0  0  0  3  0  0  0  0  0  0
  -19.7600   13.8690  -27.3620 C   0  0  0  0  0  0  0  0  0  0  0  0
  -18.7480   13.3220  -26.3750 C   0  0  0  0  0  1  0  0  0  0  0  0
  -20.0260   12.9440  -28.5330 C   0  0  0  0  0  1  0  0  0  0  0  0
  -20.9370   15.2490  -25.4560 C   0  0  0  0  0  2  0  0  0  0  0  0
  -19.3170   16.7690  -24.2600 C   0  0  0  0  0  3  0  0  0  0  0  0
  -18.1350   18.4880  -19.8420 F   0  0  0  0  0  0  0  0  0  0  0  0
  -20.6000   16.2410  -16.4960 F   0  0  0  0  0  0  0  0  0  0  0  0
  -21.6720   15.5730  -20.9920 F   0  0  0  0  0  0  0  0  0  0  0  0
  -19.7740   16.1440  -25.3650 N   0  0  0  0  0  0  0  0  0  0  0  0
  -19.5730   17.3560  -21.8410 N   0  0  0  0  0  2  0  0  0  0  0  0
  -18.1650   18.2990  -27.6940 N   0  0  0  0  0  2  0  0  0  0  0  0
  -19.2810   20.8820  -31.4860 N   0  0  0  0  0  1  0  0  0  0  0  0
  -16.9090   22.3940  -24.5140 N   0  0  0  0  0  2  0  0  0  0  0  0
  -20.3310   18.3030  -27.0640 O   0  0  0  0  0  1  0  0  0  0  0  0
  -18.3070   17.4730  -24.3000 O   0  0  0  0  0  1  0  0  0  0  0  0
  -18.8020   18.5540  -30.2810 O   0  0  0  0  0  1  0  0  0  0  0  0
  -17.6030   21.8180  -30.2550 O   0  0  0  0  0  1  0  0  0  0  0  0
  -15.1620   21.2350  -25.5010 O   0  0  0  0  0  1  0  0  0  0  0  0
  1 12  1  0
  1 30  1  0
  1 33  1  0
  2 24  1  0
  2 29  1  0
  3  4  1  0
  3  8  1  0
  3 29  1  0
  4  5  1  0
  4 25  1  0
  5  6  1  0
  6  7  1  0
  6 26  1  0
  7  8  1  0
  8 27  1  0
  9 10  1  0
  9 13  1  0
  9 30  1  0
 10 11  1  0
 10 35  1  0
 11 31  1  0
 11 36  1  0
 12 18  1  0
 12 28  1  0
 13 14  1  0
 14 15  1  0
 14 17  1  0
 15 16  1  0
 16 32  1  0
 17 32  1  0
 17 37  1  0
 18 19  1  0
 18 20  1  0
 19 20  1  0
 19 23  1  0
 20 21  1  0
 20 22  1  0
 23 28  1  0
 24 28  1  0
 24 34  1  0
M  END
$$$$
