7sgh_B_99W_401
     RDKit          3D

 32 33  0  0  0  0  0  0  0  0999 V2000
   36.0480  -22.9940  106.3080 C   0  0  0  0  0  3  0  0  0  0  0  0
   34.3190  -17.1080  107.9750 C   0  0  0  0  0  3  0  0  0  0  0  0
   33.8540  -15.8080  107.8990 C   0  0  0  0  0  2  0  0  0  0  0  0
   33.8280  -15.0830  109.0590 C   0  0  0  0  0  3  0  0  0  0  0  0
   34.2360  -15.5770  110.2760 C   0  0  0  0  0  2  0  0  0  0  0  0
   34.6880  -16.8840  110.3140 C   0  0  0  0  0  3  0  0  0  0  0  0
   34.8950  -25.0600  105.7100 C   0  0  0  0  0  3  0  0  0  0  0  0
   35.4500  -25.9190  104.5970 C   0  0  0  0  0  2  0  0  0  0  0  0
   33.3900  -25.3030  105.8610 C   0  0  0  0  0  2  0  0  0  0  0  0
   32.8000  -24.7700  107.1590 C   0  0  0  0  0  3  0  0  0  0  0  0
   33.2390  -25.3800  108.4880 C   0  0  0  0  0  2  0  0  0  0  0  0
   36.2310  -21.4970  106.0720 C   0  0  0  0  0  3  0  0  0  0  0  0
   31.9790  -25.3220  109.3670 C   0  0  0  0  0  2  0  0  0  0  0  0
   31.2870  -24.9300  107.1630 C   0  0  0  0  0  3  0  0  0  0  0  0
   37.6870  -21.1810  105.7260 C   0  0  0  0  0  2  0  0  0  0  0  0
   37.9620  -19.7440  105.2710 C   0  0  0  0  0  3  0  0  0  0  0  0
   39.4420  -19.5470  104.9320 C   0  0  0  0  0  1  0  0  0  0  0  0
   37.0970  -19.3690  104.0780 C   0  0  0  0  0  1  0  0  0  0  0  0
   34.5790  -20.8280  107.7570 C   0  0  0  0  0  3  0  0  0  0  0  0
   34.3600  -20.1710  109.1140 C   0  0  0  0  0  2  0  0  0  0  0  0
   34.7470  -17.6900  109.1770 C   0  0  0  0  0  3  0  0  0  0  0  0
   34.3500  -17.8420  106.8440 F   0  0  0  0  0  0  0  0  0  0  0  0
   33.3690  -13.8080  108.9960 F   0  0  0  0  0  0  0  0  0  0  0  0
   35.1030  -17.4150  111.4810 F   0  0  0  0  0  0  0  0  0  0  0  0
   35.8110  -20.7530  107.2470 N   0  0  0  0  0  2  0  0  0  0  0  0
   35.1990  -19.0110  109.3330 N   0  0  0  0  0  2  0  0  0  0  0  0
   35.2220  -23.6610  105.4900 N   0  0  0  0  0  2  0  0  0  0  0  0
   35.9740  -27.0640  104.8850 N   0  0  0  0  0  1  0  0  0  0  0  0
   30.8930  -25.2660  108.3850 N   0  0  0  0  0  2  0  0  0  0  0  0
   36.6160  -23.5220  107.2580 O   0  0  0  0  0  1  0  0  0  0  0  0
   33.6350  -21.3720  107.1900 O   0  0  0  0  0  1  0  0  0  0  0  0
   30.5420  -24.6980  106.1750 O   0  0  0  0  0  1  0  0  0  0  0  0
  1 12  1  0
  1 27  1  0
  1 30  1  0
  2  3  1  0
  2 21  1  0
  2 22  1  0
  3  4  1  0
  4  5  1  0
  4 23  1  0
  5  6  1  0
  6 21  1  0
  6 24  1  0
  7  8  1  0
  7  9  1  0
  7 27  1  0
  8 28  1  0
  9 10  1  0
 10 11  1  0
 10 14  1  0
 11 13  1  0
 12 15  1  0
 12 25  1  0
 13 29  1  0
 14 29  1  0
 14 32  1  0
 15 16  1  0
 16 17  1  0
 16 18  1  0
 19 20  1  0
 19 25  1  0
 19 31  1  0
 20 26  1  0
 21 26  1  0
M  END
$$$$
