7sgh_D_99W_401
     RDKit          3D

 32 33  0  0  0  0  0  0  0  0999 V2000
   -1.3440  -47.4750   90.4220 C   0  0  0  0  0  3  0  0  0  0  0  0
   -6.8970  -43.5950   94.3340 C   0  0  0  0  0  3  0  0  0  0  0  0
   -8.0990  -42.9420   94.5300 C   0  0  0  0  0  2  0  0  0  0  0  0
   -9.2440  -43.6180   94.1980 C   0  0  0  0  0  3  0  0  0  0  0  0
   -9.2490  -44.8900   93.6880 C   0  0  0  0  0  2  0  0  0  0  0  0
   -8.0260  -45.5080   93.5000 C   0  0  0  0  0  3  0  0  0  0  0  0
    0.8090  -46.3690   90.2190 C   0  0  0  0  0  3  0  0  0  0  0  0
    2.0330  -47.1420   89.7720 C   0  0  0  0  0  2  0  0  0  0  0  0
    1.2390  -45.1970   91.1030 C   0  0  0  0  0  2  0  0  0  0  0  0
    0.1410  -44.1940   91.4010 C   0  0  0  0  0  3  0  0  0  0  0  0
   -0.4920  -43.4860   90.2160 C   0  0  0  0  0  2  0  0  0  0  0  0
   -2.2920  -48.3160   91.2750 C   0  0  0  0  0  3  0  0  0  0  0  0
   -0.4960  -42.0050   90.5750 C   0  0  0  0  0  2  0  0  0  0  0  0
    0.6720  -43.0840   92.2820 C   0  0  0  0  0  3  0  0  0  0  0  0
   -2.6070  -49.6080   90.5230 C   0  0  0  0  0  2  0  0  0  0  0  0
   -3.4490  -50.6290   91.2900 C   0  0  0  0  0  3  0  0  0  0  0  0
   -3.8870  -51.7820   90.3920 C   0  0  0  0  0  1  0  0  0  0  0  0
   -2.6880  -51.1620   92.4850 C   0  0  0  0  0  1  0  0  0  0  0  0
   -3.5680  -46.4740   92.3120 C   0  0  0  0  0  3  0  0  0  0  0  0
   -4.9260  -45.7480   92.3410 C   0  0  0  0  0  2  0  0  0  0  0  0
   -6.8070  -44.8920   93.8140 C   0  0  0  0  0  3  0  0  0  0  0  0
   -5.7540  -42.9490   94.6420 F   0  0  0  0  0  0  0  0  0  0  0  0
  -10.4370  -43.0020   94.3870 F   0  0  0  0  0  0  0  0  0  0  0  0
   -8.0150  -46.7600   92.9970 F   0  0  0  0  0  0  0  0  0  0  0  0
   -3.5250  -47.6240   91.6280 N   0  0  0  0  0  2  0  0  0  0  0  0
   -5.5390  -45.5140   93.6310 N   0  0  0  0  0  2  0  0  0  0  0  0
   -0.1230  -47.2350   90.9100 N   0  0  0  0  0  2  0  0  0  0  0  0
    2.5870  -46.8440   88.6580 N   0  0  0  0  0  1  0  0  0  0  0  0
    0.3040  -41.9200   91.7910 N   0  0  0  0  0  2  0  0  0  0  0  0
   -1.6910  -47.1060   89.3050 O   0  0  0  0  0  1  0  0  0  0  0  0
   -2.5770  -45.9600   92.8370 O   0  0  0  0  0  1  0  0  0  0  0  0
    1.3250  -43.2510   93.2940 O   0  0  0  0  0  1  0  0  0  0  0  0
  1 12  1  0
  1 27  1  0
  1 30  1  0
  2  3  1  0
  2 21  1  0
  2 22  1  0
  3  4  1  0
  4  5  1  0
  4 23  1  0
  5  6  1  0
  6 21  1  0
  6 24  1  0
  7  8  1  0
  7  9  1  0
  7 27  1  0
  8 28  1  0
  9 10  1  0
 10 11  1  0
 10 14  1  0
 11 13  1  0
 12 15  1  0
 12 25  1  0
 13 29  1  0
 14 29  1  0
 14 32  1  0
 15 16  1  0
 16 17  1  0
 16 18  1  0
 19 20  1  0
 19 25  1  0
 19 31  1  0
 20 26  1  0
 21 26  1  0
M  END
$$$$
