7sgh_A_99W_401
     RDKit          3D

 32 33  0  0  0  0  0  0  0  0999 V2000
   -6.6110  -25.7210   55.6600 C   0  0  0  0  0  3  0  0  0  0  0  0
   -5.3890  -31.7680   59.9700 C   0  0  0  0  0  3  0  0  0  0  0  0
   -4.9120  -33.0660   60.0240 C   0  0  0  0  0  2  0  0  0  0  0  0
   -4.3630  -33.5900   58.8770 C   0  0  0  0  0  3  0  0  0  0  0  0
   -4.2750  -32.9070   57.6970 C   0  0  0  0  0  2  0  0  0  0  0  0
   -4.7610  -31.6180   57.6830 C   0  0  0  0  0  3  0  0  0  0  0  0
   -5.5190  -23.6330   55.0170 C   0  0  0  0  0  3  0  0  0  0  0  0
   -6.0340  -22.7510   53.8980 C   0  0  0  0  0  2  0  0  0  0  0  0
   -4.0080  -23.4350   55.1530 C   0  0  0  0  0  2  0  0  0  0  0  0
   -3.3660  -24.0420   56.3850 C   0  0  0  0  0  3  0  0  0  0  0  0
   -3.8050  -23.5230   57.7530 C   0  0  0  0  0  2  0  0  0  0  0  0
   -6.8340  -27.2060   55.3680 C   0  0  0  0  0  3  0  0  0  0  0  0
   -2.5290  -23.4840   58.5880 C   0  0  0  0  0  2  0  0  0  0  0  0
   -1.8640  -23.8200   56.3650 C   0  0  0  0  0  3  0  0  0  0  0  0
   -8.2680  -27.4920   54.9070 C   0  0  0  0  0  2  0  0  0  0  0  0
   -8.5940  -28.9610   54.6210 C   0  0  0  0  0  3  0  0  0  0  0  0
  -10.0790  -29.1610   54.3630 C   0  0  0  0  0  1  0  0  0  0  0  0
   -7.7860  -29.5010   53.4590 C   0  0  0  0  0  1  0  0  0  0  0  0
   -5.1830  -27.9680   56.9930 C   0  0  0  0  0  3  0  0  0  0  0  0
   -4.8880  -28.6040   58.3550 C   0  0  0  0  0  2  0  0  0  0  0  0
   -5.3330  -31.0060   58.8010 C   0  0  0  0  0  3  0  0  0  0  0  0
   -5.9300  -31.2070   61.0710 F   0  0  0  0  0  0  0  0  0  0  0  0
   -3.8810  -34.8540   58.9020 F   0  0  0  0  0  0  0  0  0  0  0  0
   -4.6880  -30.9110   56.5410 F   0  0  0  0  0  0  0  0  0  0  0  0
   -6.4520  -27.9420   56.5690 N   0  0  0  0  0  2  0  0  0  0  0  0
   -5.7680  -29.6850   58.7390 N   0  0  0  0  0  2  0  0  0  0  0  0
   -5.8910  -25.0210   54.7820 N   0  0  0  0  0  2  0  0  0  0  0  0
   -6.3750  -21.5150   54.1530 N   0  0  0  0  0  1  0  0  0  0  0  0
   -1.4590  -23.4840   57.5870 N   0  0  0  0  0  2  0  0  0  0  0  0
   -6.9850  -25.2560   56.7350 O   0  0  0  0  0  1  0  0  0  0  0  0
   -4.2630  -27.4510   56.3560 O   0  0  0  0  0  1  0  0  0  0  0  0
   -1.1510  -23.9440   55.3770 O   0  0  0  0  0  1  0  0  0  0  0  0
  1 12  1  0
  1 27  1  0
  1 30  1  0
  2  3  1  0
  2 21  1  0
  2 22  1  0
  3  4  1  0
  4  5  1  0
  4 23  1  0
  5  6  1  0
  6 21  1  0
  6 24  1  0
  7  8  1  0
  7  9  1  0
  7 27  1  0
  8 28  1  0
  9 10  1  0
 10 11  1  0
 10 14  1  0
 11 13  1  0
 12 15  1  0
 12 25  1  0
 13 29  1  0
 14 29  1  0
 14 32  1  0
 15 16  1  0
 16 17  1  0
 16 18  1  0
 19 20  1  0
 19 25  1  0
 19 31  1  0
 20 26  1  0
 21 26  1  0
M  END
$$$$
