7tvs_A_XNJ_401
     RDKit          3D

 35 39  0  0  0  0  0  0  0  0999 V2000
   11.1930   -1.2260   17.6680 C   0  0  0  0  0  2  0  0  0  0  0  0
   10.8830   -1.7430   16.3040 C   0  0  0  0  0  2  0  0  0  0  0  0
    9.7230   -1.4660   15.7350 C   0  0  0  0  0  2  0  0  0  0  0  0
    8.9810   -0.1930   17.6290 C   0  0  0  0  0  2  0  0  0  0  0  0
   10.3200   -0.5080   18.2720 C   0  0  0  0  0  3  0  0  0  0  0  0
   10.5510    0.0480   19.6810 C   0  0  0  0  0  3  0  0  0  0  0  0
   11.7740    0.1820   20.4690 C   0  0  0  0  0  2  0  0  0  0  0  0
    9.7920    1.0520   21.8110 C   0  0  0  0  0  3  0  0  0  0  0  0
    9.2640    2.1140   24.1010 C   0  0  0  0  0  3  0  0  0  0  0  0
   10.5330    2.9440   24.2530 C   0  0  0  0  0  2  0  0  0  0  0  0
   10.8710    3.4020   25.4390 C   0  0  0  0  0  3  0  0  0  0  0  0
    9.9940    3.1110   26.6520 C   0  0  0  0  0  2  0  0  0  0  0  0
    8.8880    2.3940   26.5180 C   0  0  0  0  0  2  0  0  0  0  0  0
    8.4950    1.8620   25.1400 C   0  0  0  0  0  3  0  0  0  0  0  0
    7.2250    1.0350   24.9590 C   0  0  0  0  0  1  0  0  0  0  0  0
   13.3220    3.5220   25.9700 C   0  0  0  0  0  3  0  0  0  0  0  0
   14.6110    4.3500   26.0420 C   0  0  0  0  0  3  0  0  0  0  0  0
   15.7740    3.7500   26.2000 C   0  0  0  0  0  2  0  0  0  0  0  0
   17.0540    4.5870   26.2590 C   0  0  0  0  0  2  0  0  0  0  0  0
   17.0040    5.9020   26.1300 C   0  0  0  0  0  3  0  0  0  0  0  0
   15.6370    6.5860   25.9530 C   0  0  0  0  0  2  0  0  0  0  0  0
   14.5310    5.8670   25.8980 C   0  0  0  0  0  2  0  0  0  0  0  0
   18.3090    6.7460   26.1890 C   0  0  0  0  0  2  0  0  0  0  0  0
   19.6680    5.8020   24.7300 C   0  0  0  0  0  2  0  0  0  0  0  0
   20.5500    6.0360   23.4970 C   0  0  0  0  0  2  0  0  0  0  0  0
   18.9500    7.5680   22.7680 C   0  0  0  0  0  2  0  0  0  0  0  0
   18.1530    7.2290   24.0350 C   0  0  0  0  0  2  0  0  0  0  0  0
    8.7110   -0.6430   16.4450 N   0  0  0  0  0  2  0  0  0  0  0  0
    9.3130    0.5990   20.5420 N   0  0  0  0  0  2  0  0  0  0  0  0
    8.8730    1.6070   22.8000 N   0  0  0  0  0  2  0  0  0  0  0  0
   12.0980    4.1820   25.5380 N   0  0  0  0  0  2  0  0  0  0  0  0
   18.9480    6.8680   25.0250 N   0  0  0  0  0  0  0  0  0  0  0  0
   19.7330    6.4280   22.3880 N   0  0  0  0  0  2  0  0  0  0  0  0
   13.3230    2.3660   26.2400 O   0  0  0  0  0  1  0  0  0  0  0  0
   11.3730    0.8230   21.8540 S   0  0  0  0  0  0  0  0  0  0  0  0
  1  2  1  0
  1  5  1  0
  2  3  1  0
  3 28  1  0
  4  5  1  0
  4 28  1  0
  5  6  1  0
  6  7  1  0
  6 29  1  0
  7 35  1  0
  8 29  1  0
  8 30  1  0
  8 35  1  0
  9 10  1  0
  9 14  1  0
  9 30  1  0
 10 11  1  0
 11 12  1  0
 11 31  1  0
 12 13  1  0
 13 14  1  0
 14 15  1  0
 16 17  1  0
 16 31  1  0
 16 34  1  0
 17 18  1  0
 17 22  1  0
 18 19  1  0
 19 20  1  0
 20 21  1  0
 20 23  1  0
 21 22  1  0
 23 32  1  0
 24 25  1  0
 24 32  1  0
 25 33  1  0
 26 27  1  0
 26 33  1  0
 27 32  1  0
M  END
$$$$
