7tvx_A_G65_401
     RDKit          3D

 36 40  0  0  0  0  0  0  0  0999 V2000
   11.1650   -0.8500   17.7460 C   0  0  0  0  0  2  0  0  0  0  0  0
   10.9470   -1.3980   16.3780 C   0  0  0  0  0  2  0  0  0  0  0  0
    9.7560   -1.3030   15.8190 C   0  0  0  0  0  2  0  0  0  0  0  0
    8.8050   -0.1820   17.7090 C   0  0  0  0  0  2  0  0  0  0  0  0
   10.1870   -0.2880   18.3510 C   0  0  0  0  0  3  0  0  0  0  0  0
   10.3650    0.2610   19.7630 C   0  0  0  0  0  3  0  0  0  0  0  0
   11.5760    0.3420   20.5700 C   0  0  0  0  0  2  0  0  0  0  0  0
    9.6130    1.2510   21.8990 C   0  0  0  0  0  3  0  0  0  0  0  0
    9.1540    2.2800   24.1990 C   0  0  0  0  0  3  0  0  0  0  0  0
   10.4210    3.1300   24.3680 C   0  0  0  0  0  2  0  0  0  0  0  0
   10.7810    3.5290   25.5730 C   0  0  0  0  0  3  0  0  0  0  0  0
    9.9320    3.1640   26.7910 C   0  0  0  0  0  2  0  0  0  0  0  0
    8.8340    2.4330   26.6450 C   0  0  0  0  0  2  0  0  0  0  0  0
    8.4170    1.9620   25.2410 C   0  0  0  0  0  3  0  0  0  0  0  0
    7.1510    1.1150   25.0280 C   0  0  0  0  0  1  0  0  0  0  0  0
   13.2980    3.7280   25.9610 C   0  0  0  0  0  3  0  0  0  0  0  0
   14.4880    4.6900   26.0930 C   0  0  0  0  0  3  0  0  0  0  0  0
   15.7090    4.2880   26.4040 C   0  0  0  0  0  2  0  0  0  0  0  0
   16.8390    5.3220   26.5210 C   0  0  0  0  0  2  0  0  0  0  0  0
   16.5880    6.6080   26.3140 C   0  0  0  0  0  3  0  0  0  0  0  0
   15.1720    7.0460   25.9530 C   0  0  0  0  0  2  0  0  0  0  0  0
   14.1980    6.1650   25.8540 C   0  0  0  0  0  2  0  0  0  0  0  0
   17.7040    7.6690   26.4240 C   0  0  0  0  0  2  0  0  0  0  0  0
   18.8470    8.5640   28.0750 C   0  0  0  0  0  2  0  0  0  0  0  0
   19.5110    9.7820   27.4220 C   0  0  0  0  0  2  0  0  0  0  0  0
   17.5170   10.5620   26.8490 C   0  0  0  0  0  2  0  0  0  0  0  0
   16.8770    9.3710   27.5670 C   0  0  0  0  0  2  0  0  0  0  0  0
   18.6370   11.4840   28.4760 C   0  0  0  0  0  1  0  0  0  0  0  0
    8.6150   -0.6570   16.5270 N   0  0  0  0  0  2  0  0  0  0  0  0
    9.1330    0.8330   20.6200 N   0  0  0  0  0  2  0  0  0  0  0  0
    8.7280    1.8220   22.8920 N   0  0  0  0  0  2  0  0  0  0  0  0
   11.9910    4.3340   25.7170 N   0  0  0  0  0  2  0  0  0  0  0  0
   17.6540    8.3140   27.5820 N   0  0  0  0  0  0  0  0  0  0  0  0
   18.7120   10.8280   27.3460 N   0  0  0  0  0  0  0  0  0  0  0  0
   13.4330    2.5510   26.0620 O   0  0  0  0  0  1  0  0  0  0  0  0
   11.1810    0.9740   21.9530 S   0  0  0  0  0  0  0  0  0  0  0  0
  1  2  1  0
  1  5  1  0
  2  3  1  0
  3 29  1  0
  4  5  1  0
  4 29  1  0
  5  6  1  0
  6  7  1  0
  6 30  1  0
  7 36  1  0
  8 30  1  0
  8 31  1  0
  8 36  1  0
  9 10  1  0
  9 14  1  0
  9 31  1  0
 10 11  1  0
 11 12  1  0
 11 32  1  0
 12 13  1  0
 13 14  1  0
 14 15  1  0
 16 17  1  0
 16 32  1  0
 16 35  1  0
 17 18  1  0
 17 22  1  0
 18 19  1  0
 19 20  1  0
 20 21  1  0
 20 23  1  0
 21 22  1  0
 23 33  1  0
 24 25  1  0
 24 33  1  0
 25 34  1  0
 26 27  1  0
 26 34  1  0
 27 33  1  0
 28 34  1  0
M  END
$$$$
