7u92_A_M0C_401
     RDKit          3D

 41 44  0  0  0  0  0  0  0  0999 V2000
  -19.0520   14.2280  -25.4970 C   0  0  0  0  0  3  0  0  0  0  0  0
  -19.9240   15.4920  -29.5580 C   0  0  0  0  0  3  0  0  0  0  0  0
  -20.5580   14.1950  -30.0970 C   0  0  0  0  0  0  0  0  0  0  0  0
  -19.5270   13.1900  -30.6110 C   0  0  0  0  0  1  0  0  0  0  0  0
  -21.3630   13.5530  -28.9700 C   0  0  0  0  0  1  0  0  0  0  0  0
  -21.5010   14.5370  -31.2610 C   0  0  0  0  0  1  0  0  0  0  0  0
  -19.3730   17.3430  -31.0040 C   0  0  0  0  0  3  0  0  0  0  0  0
  -18.3100   17.9430  -31.9310 C   0  0  0  0  0  0  0  0  0  0  0  0
  -17.9330   12.3640  -24.3290 C   0  0  0  0  0  3  0  0  0  0  0  0
  -17.8090   12.6330  -22.7960 C   0  0  0  0  0  3  0  0  0  0  0  0
  -18.2030   11.4430  -21.9390 C   0  0  0  0  0  3  0  0  0  0  0  0
  -18.9210   15.6810  -25.9050 C   0  0  0  0  0  3  0  0  0  0  0  0
  -19.8460   10.3030  -20.2320 C   0  0  0  0  0  2  0  0  0  0  0  0
  -20.8160   11.3300  -19.6370 C   0  0  0  0  0  2  0  0  0  0  0  0
  -20.3780   12.3890  -20.6630 C   0  0  0  0  0  2  0  0  0  0  0  0
  -16.9240   11.4780  -25.0660 C   0  0  0  0  0  2  0  0  0  0  0  0
  -17.2960   11.2760  -26.5540 C   0  0  0  0  0  3  0  0  0  0  0  0
  -18.5760   10.4740  -26.8390 C   0  0  0  0  0  2  0  0  0  0  0  0
  -18.2910    9.6430  -28.0920 C   0  0  0  0  0  2  0  0  0  0  0  0
  -16.2420   10.5220  -27.3440 C   0  0  0  0  0  3  0  0  0  0  0  0
  -19.6580   16.5650  -24.9120 C   0  0  0  0  0  3  0  0  0  0  0  0
  -20.8010   17.2400  -25.6570 C   0  0  0  0  0  3  0  0  0  0  0  0
  -19.6480   18.0550  -25.1670 C   0  0  0  0  0  0  0  0  0  0  0  0
  -18.7630   18.7090  -26.2070 C   0  0  0  0  0  1  0  0  0  0  0  0
  -19.8760   18.8810  -23.9100 C   0  0  0  0  0  1  0  0  0  0  0  0
  -20.7860   16.7550  -27.0890 C   0  0  0  0  0  2  0  0  0  0  0  0
  -19.1180   15.3160  -28.2760 C   0  0  0  0  0  3  0  0  0  0  0  0
  -18.2100   19.2580  -31.7250 F   0  0  0  0  0  0  0  0  0  0  0  0
  -17.1630   17.3690  -31.7110 F   0  0  0  0  0  0  0  0  0  0  0  0
  -18.6150   17.7230  -33.1750 F   0  0  0  0  0  0  0  0  0  0  0  0
  -19.5960   15.9020  -27.1770 N   0  0  0  0  0  0  0  0  0  0  0  0
  -19.0700   16.1480  -30.5160 N   0  0  0  0  0  2  0  0  0  0  0  0
  -17.9420   13.6820  -24.9790 N   0  0  0  0  0  2  0  0  0  0  0  0
  -19.3500   11.4080  -21.0700 N   0  0  0  0  0  0  0  0  0  0  0  0
  -16.8380    9.5540  -28.0750 N   0  0  0  0  0  2  0  0  0  0  0  0
  -20.1340   13.6520  -25.5950 O   0  0  0  0  0  1  0  0  0  0  0  0
  -20.4200   17.9310  -30.7880 O   0  0  0  0  0  1  0  0  0  0  0  0
  -18.0920   14.6640  -28.2480 O   0  0  0  0  0  1  0  0  0  0  0  0
  -18.8210   13.5970  -22.5000 O   0  0  0  0  0  1  0  0  0  0  0  0
  -17.5400   10.4440  -22.0960 O   0  0  0  0  0  1  0  0  0  0  0  0
  -15.0440   10.7630  -27.3340 O   0  0  0  0  0  1  0  0  0  0  0  0
  1 12  1  0
  1 33  1  0
  1 36  1  0
  2  3  1  0
  2 27  1  0
  2 32  1  0
  3  4  1  0
  3  5  1  0
  3  6  1  0
  7  8  1  0
  7 32  1  0
  7 37  1  0
  8 28  1  0
  8 29  1  0
  8 30  1  0
  9 10  1  0
  9 16  1  0
  9 33  1  0
 10 11  1  0
 10 39  1  0
 11 34  1  0
 11 40  1  0
 12 21  1  0
 12 31  1  0
 13 14  1  0
 13 34  1  0
 14 15  1  0
 15 34  1  0
 16 17  1  0
 17 18  1  0
 17 20  1  0
 18 19  1  0
 19 35  1  0
 20 35  1  0
 20 41  1  0
 21 22  1  0
 21 23  1  0
 22 23  1  0
 22 26  1  0
 23 24  1  0
 23 25  1  0
 26 31  1  0
 27 31  1  0
 27 38  1  0
M  END
$$$$
