7z0p_D_I8H_401
     RDKit          3D

 40 42  0  0  0  0  0  0  0  0999 V2000
  -16.7320   -0.9230   -0.8320 C   0  0  0  0  0  3  0  0  0  0  0  0
  -12.9230    4.1850    0.1430 C   0  0  0  0  0  1  0  0  0  0  0  0
  -12.8880    2.8300   -1.9310 C   0  0  0  0  0  1  0  0  0  0  0  0
  -13.5740    5.2240   -2.0250 C   0  0  0  0  0  1  0  0  0  0  0  0
  -16.8100    5.3610   -0.8720 C   0  0  0  0  0  3  0  0  0  0  0  0
  -18.5990    6.9930   -0.1720 C   0  0  0  0  0  0  0  0  0  0  0  0
  -18.5890    7.5280   -1.6020 C   0  0  0  0  0  1  0  0  0  0  0  0
  -18.9310    8.2380    0.6180 C   0  0  0  0  0  1  0  0  0  0  0  0
  -19.7150    5.9700   -0.1820 C   0  0  0  0  0  1  0  0  0  0  0  0
  -12.9340   -3.1670    1.9260 C   0  0  0  0  0  3  0  0  0  0  0  0
  -11.6270   -3.9330    2.1210 C   0  0  0  0  0  3  0  0  0  0  0  0
  -16.8590   -0.2870   -2.1960 C   0  0  0  0  0  3  0  0  0  0  0  0
  -12.1540   -0.9340    2.9310 C   0  0  0  0  0  2  0  0  0  0  0  0
  -11.7390    0.4920    2.6050 C   0  0  0  0  0  3  0  0  0  0  0  0
  -11.3540    1.2900    3.8320 C   0  0  0  0  0  3  0  0  0  0  0  0
   -9.9260    2.0190    2.1260 C   0  0  0  0  0  2  0  0  0  0  0  0
  -10.5260    0.6760    1.6980 C   0  0  0  0  0  2  0  0  0  0  0  0
  -10.9490   -4.6650   -0.0980 C   0  0  0  0  0  1  0  0  0  0  0  0
  -18.0960   -0.4440   -1.3260 C   0  0  0  0  0  0  0  0  0  0  0  0
  -18.6120    0.6400   -0.4010 C   0  0  0  0  0  1  0  0  0  0  0  0
  -18.9720   -1.6820   -1.2910 C   0  0  0  0  0  1  0  0  0  0  0  0
  -16.0880    1.0190   -2.1840 C   0  0  0  0  0  2  0  0  0  0  0  0
  -15.7910   -0.0570   -0.0030 C   0  0  0  0  0  3  0  0  0  0  0  0
  -15.2780    2.2830   -0.1330 C   0  0  0  0  0  3  0  0  0  0  0  0
  -14.4190   -0.7050    0.1420 C   0  0  0  0  0  3  0  0  0  0  0  0
  -15.0970    3.5750   -0.9420 C   0  0  0  0  0  3  0  0  0  0  0  0
  -13.6360    3.9430   -1.1850 C   0  0  0  0  0  0  0  0  0  0  0  0
  -12.7550   -1.6430    1.7210 C   0  0  0  0  0  3  0  0  0  0  0  0
  -15.6970    1.1800   -0.7760 N   0  0  0  0  0  0  0  0  0  0  0  0
  -15.7730    4.7000   -0.3050 N   0  0  0  0  0  2  0  0  0  0  0  0
  -14.0460   -1.0210    1.3860 N   0  0  0  0  0  2  0  0  0  0  0  0
  -17.2200    6.4810   -0.2230 N   0  0  0  0  0  2  0  0  0  0  0  0
  -11.3260   -4.9070    1.2810 N   0  0  0  0  0  2  0  0  0  0  0  0
  -10.3850    2.1470    3.5030 N   0  0  0  0  0  2  0  0  0  0  0  0
  -13.7080   -0.8880   -0.8420 O   0  0  0  0  0  1  0  0  0  0  0  0
  -15.0410    2.2270    1.0760 O   0  0  0  0  0  1  0  0  0  0  0  0
  -17.3360    4.9590   -1.9250 O   0  0  0  0  0  1  0  0  0  0  0  0
  -10.8800   -3.6060    3.0360 O   0  0  0  0  0  1  0  0  0  0  0  0
  -13.6530   -3.6970    0.8180 O   0  0  0  0  0  1  0  0  0  0  0  0
  -11.8740    1.1800    4.9440 O   0  0  0  0  0  1  0  0  0  0  0  0
  1 12  1  0
  1 19  1  0
  1 23  1  0
  2 27  1  0
  3 27  1  0
  4 27  1  0
  5 30  1  0
  5 32  1  0
  5 37  1  0
  6  7  1  0
  6  8  1  0
  6  9  1  0
  6 32  1  0
 10 11  1  0
 10 28  1  0
 10 39  1  0
 11 33  1  0
 11 38  1  0
 12 19  1  0
 12 22  1  0
 13 14  1  0
 13 28  1  0
 14 15  1  0
 14 17  1  0
 15 34  1  0
 15 40  1  0
 16 17  1  0
 16 34  1  0
 18 33  1  0
 19 20  1  0
 19 21  1  0
 22 29  1  0
 23 25  1  0
 23 29  1  0
 24 26  1  0
 24 29  1  0
 24 36  1  0
 25 31  1  0
 25 35  1  0
 26 27  1  0
 26 30  1  0
 28 31  1  0
M  END
$$$$
