7z59_A_IFO_401
     RDKit          3D

 35 36  0  0  0  0  0  0  0  0999 V2000
   -6.2320  -23.5860  -22.2580 C   0  0  0  0  0  1  0  0  0  0  0  0
  -11.8340  -28.4940  -23.1000 C   0  0  0  0  0  3  0  0  0  0  0  0
  -12.9870  -27.7590  -22.8850 C   0  0  0  0  0  2  0  0  0  0  0  0
  -14.1460  -28.1060  -23.5630 C   0  0  0  0  0  2  0  0  0  0  0  0
  -14.1650  -29.1820  -24.4220 C   0  0  0  0  0  2  0  0  0  0  0  0
  -13.0190  -29.9160  -24.6130 C   0  0  0  0  0  2  0  0  0  0  0  0
  -11.8460  -29.5800  -23.9530 C   0  0  0  0  0  2  0  0  0  0  0  0
   -4.9320  -25.9210  -23.4230 C   0  0  0  0  0  3  0  0  0  0  0  0
   -2.6000  -25.8420  -23.3610 C   0  0  0  0  0  2  0  0  0  0  0  0
   -1.4090  -25.1690  -23.9630 C   0  0  0  0  0  3  0  0  0  0  0  0
   -0.1400  -25.4940  -23.4920 C   0  0  0  0  0  2  0  0  0  0  0  0
   -5.4280  -24.5280  -21.3540 C   0  0  0  0  0  0  0  0  0  0  0  0
    0.9910  -24.9030  -24.0220 C   0  0  0  0  0  2  0  0  0  0  0  0
    0.8220  -24.0060  -25.0340 C   0  0  0  0  0  3  0  0  0  0  0  0
   -0.4080  -23.6570  -25.5430 C   0  0  0  0  0  2  0  0  0  0  0  0
   -1.5110  -24.2630  -24.9820 C   0  0  0  0  0  3  0  0  0  0  0  0
   -6.0220  -24.5760  -19.9440 C   0  0  0  0  0  1  0  0  0  0  0  0
   -5.2070  -25.9480  -21.9210 C   0  0  0  0  0  3  0  0  0  0  0  0
   -6.3500  -27.6680  -20.5120 C   0  0  0  0  0  2  0  0  0  0  0  0
   -7.3230  -28.6860  -20.3890 C   0  0  0  0  0  3  0  0  0  0  0  0
   -7.2650  -29.8380  -19.4520 C   0  0  0  0  0  2  0  0  0  0  0  0
   -9.3070  -27.3290  -20.7820 C   0  0  0  0  0  3  0  0  0  0  0  0
  -10.6540  -27.2520  -21.4470 C   0  0  0  0  0  2  0  0  0  0  0  0
    1.9250  -23.4120  -25.5540 F   0  0  0  0  0  0  0  0  0  0  0  0
   -2.7420  -23.9330  -25.4480 F   0  0  0  0  0  0  0  0  0  0  0  0
   -6.3180  -26.8370  -21.5940 N   0  0  0  0  0  2  0  0  0  0  0  0
   -8.5860  -28.4620  -20.9950 N   0  0  0  0  0  2  0  0  0  0  0  0
   -6.2980  -30.5510  -19.3130 O   0  0  0  0  0  1  0  0  0  0  0  0
   -8.9420  -26.4020  -20.0680 O   0  0  0  0  0  1  0  0  0  0  0  0
  -10.6520  -28.2300  -22.4770 O   0  0  0  0  0  0  0  0  0  0  0  0
   -5.5760  -26.5020  -24.2460 O   0  0  0  0  0  1  0  0  0  0  0  0
   -3.8460  -25.2060  -23.7160 O   0  0  0  0  0  0  0  0  0  0  0  0
   -3.9560  -22.3960  -20.6460 O   0  0  0  0  0  1  0  0  0  0  0  0
   -2.9430  -24.5880  -20.0320 O   0  0  0  0  0  1  0  0  0  0  0  0
   -3.7530  -23.7810  -21.1390 S   0  0  0  0  0  3  0  0  0  0  0  0
  1 12  1  0
  2  3  1  0
  2  7  1  0
  2 30  1  0
  3  4  1  0
  4  5  1  0
  5  6  1  0
  6  7  1  0
  8 18  1  0
  8 31  1  0
  8 32  1  0
  9 10  1  0
  9 32  1  0
 10 11  1  0
 10 16  1  0
 11 13  1  0
 12 17  1  0
 12 18  1  0
 12 35  1  0
 13 14  1  0
 14 15  1  0
 14 24  1  0
 15 16  1  0
 16 25  1  0
 18 26  1  0
 19 20  1  0
 19 26  1  0
 20 21  1  0
 20 27  1  0
 21 28  1  0
 22 23  1  0
 22 27  1  0
 22 29  1  0
 23 30  1  0
 33 35  1  0
 34 35  1  0
M  END
$$$$
