8bga_A_QQL_401
     RDKit          3D

 35 37  0  0  0  0  0  0  0  0999 V2000
   11.8480  -13.1190   26.5630 C   0  0  0  0  0  3  0  0  0  0  0  0
   11.6850  -14.9330   24.8570 C   0  0  0  0  0  3  0  0  0  0  0  0
   12.2350  -16.3250   24.5200 C   0  0  0  0  0  2  0  0  0  0  0  0
   13.7500  -16.3380   24.2340 C   0  0  0  0  0  3  0  0  0  0  0  0
   14.0640  -15.7270   22.8690 C   0  0  0  0  0  1  0  0  0  0  0  0
   14.3180  -17.7760   24.3640 C   0  0  0  0  0  1  0  0  0  0  0  0
   10.1440  -14.9700   24.8410 C   0  0  0  0  0  3  0  0  0  0  0  0
    8.0150  -14.7990   23.4400 C   0  0  0  0  0  3  0  0  0  0  0  0
    7.3720  -13.4270   23.2530 C   0  0  0  0  0  2  0  0  0  0  0  0
    7.4470  -12.5770   24.5710 C   0  0  0  0  0  3  0  0  0  0  0  0
    6.7270  -13.2690   25.7440 C   0  0  0  0  0  2  0  0  0  0  0  0
    5.9020  -12.1440   26.4550 C   0  0  0  0  0  2  0  0  0  0  0  0
    6.7800  -11.1430   24.4580 C   0  0  0  0  0  3  0  0  0  0  0  0
    7.7990  -15.7900   22.2820 C   0  0  0  0  0  2  0  0  0  0  0  0
    8.3200  -17.2270   22.6470 C   0  0  0  0  0  2  0  0  0  0  0  0
   12.3710  -12.6160   27.9870 C   0  0  0  0  0  3  0  0  0  0  0  0
   13.1360  -13.3010   28.9310 C   0  0  0  0  0  2  0  0  0  0  0  0
   13.4010  -12.5000   30.0990 C   0  0  0  0  0  3  0  0  0  0  0  0
   14.1340  -12.6900   31.3740 C   0  0  0  0  0  3  0  0  0  0  0  0
   14.5230  -14.5360   32.9430 C   0  0  0  0  0  1  0  0  0  0  0  0
   14.1690  -11.6230   32.2930 C   0  0  0  0  0  2  0  0  0  0  0  0
   13.4960  -10.3640   31.9950 C   0  0  0  0  0  2  0  0  0  0  0  0
   12.7900  -10.1710   30.7910 C   0  0  0  0  0  2  0  0  0  0  0  0
   12.7410  -11.2490   29.8230 C   0  0  0  0  0  3  0  0  0  0  0  0
   12.1250  -14.4110   26.1360 N   0  0  0  0  0  2  0  0  0  0  0  0
    9.5140  -14.7570   23.6640 N   0  0  0  0  0  2  0  0  0  0  0  0
    5.8980  -10.9310   25.5310 N   0  0  0  0  0  2  0  0  0  0  0  0
    7.4540  -18.4570   22.1220 N   0  0  0  0  0  0  0  0  0  0  0  0
   12.1260  -11.3450   28.5420 N   0  0  0  0  0  2  0  0  0  0  0  0
   11.1980  -12.3950   25.8050 O   0  0  0  0  0  1  0  0  0  0  0  0
    7.0230  -10.3620   23.5380 O   0  0  0  0  0  1  0  0  0  0  0  0
    7.9520  -19.5630   21.9790 O   0  0  0  0  0  1  0  0  0  0  0  0
    6.2990  -18.1570   21.8920 O   0  0  0  0  0  1  0  0  0  0  0  0
    9.5520  -15.2010   25.8940 O   0  0  0  0  0  1  0  0  0  0  0  0
   14.7520  -13.9260   31.6360 O   0  0  0  0  0  0  0  0  0  0  0  0
  1 16  1  0
  1 25  1  0
  1 30  1  0
  2  3  1  0
  2  7  1  0
  2 25  1  0
  3  4  1  0
  4  5  1  0
  4  6  1  0
  7 26  1  0
  7 34  1  0
  8  9  1  0
  8 14  1  0
  8 26  1  0
  9 10  1  0
 10 11  1  0
 10 13  1  0
 11 12  1  0
 12 27  1  0
 13 27  1  0
 13 31  1  0
 14 15  1  0
 15 28  1  0
 16 17  1  0
 16 29  1  0
 17 18  1  0
 18 19  1  0
 18 24  1  0
 19 21  1  0
 19 35  1  0
 20 35  1  0
 21 22  1  0
 22 23  1  0
 23 24  1  0
 24 29  1  0
 28 32  1  0
 28 33  1  0
M  END
$$$$
