8bgd_A_QH0_401
     RDKit          3D

 32 33  0  0  0  0  0  0  0  0999 V2000
   19.7960   14.4130   27.9760 C   0  0  0  0  0  3  0  0  0  0  0  0
   19.5900   14.9030   25.6130 C   0  0  0  0  0  3  0  0  0  0  0  0
   20.3630   15.7220   24.5350 C   0  0  0  0  0  2  0  0  0  0  0  0
   20.4350   17.2060   24.8610 C   0  0  0  0  0  3  0  0  0  0  0  0
   21.1650   18.0370   23.7530 C   0  0  0  0  0  1  0  0  0  0  0  0
   19.0690   17.8240   25.0240 C   0  0  0  0  0  1  0  0  0  0  0  0
   19.4700   13.4450   25.2060 C   0  0  0  0  0  3  0  0  0  0  0  0
   18.0790   11.6170   24.3720 C   0  0  0  0  0  3  0  0  0  0  0  0
   16.9570   11.1190   25.2410 C   0  0  0  0  0  2  0  0  0  0  0  0
   17.2420   10.0450   26.2020 C   0  0  0  0  0  3  0  0  0  0  0  0
   18.6000    9.8480   26.8520 C   0  0  0  0  0  2  0  0  0  0  0  0
   18.2740    8.8060   27.9170 C   0  0  0  0  0  2  0  0  0  0  0  0
   16.3070    9.9240   27.3790 C   0  0  0  0  0  3  0  0  0  0  0  0
   17.6970   11.4680   22.8890 C   0  0  0  0  0  2  0  0  0  0  0  0
   18.9190   11.6790   22.0600 C   0  0  0  0  0  2  0  0  0  0  0  0
   20.1900   13.3840   30.1320 C   0  0  0  0  0  2  0  0  0  0  0  0
   20.5570   11.9250   29.9510 C   0  0  0  0  0  3  0  0  0  0  0  0
   21.4010   11.4480   28.8920 C   0  0  0  0  0  2  0  0  0  0  0  0
   21.7420   10.0740   28.7830 C   0  0  0  0  0  2  0  0  0  0  0  0
   21.2770    9.1360   29.7390 C   0  0  0  0  0  2  0  0  0  0  0  0
   20.4590    9.5850   30.8080 C   0  0  0  0  0  2  0  0  0  0  0  0
   20.0900   10.9530   30.8830 C   0  0  0  0  0  2  0  0  0  0  0  0
   20.2490   15.0650   26.8980 N   0  0  0  0  0  2  0  0  0  0  0  0
   18.3060   12.9500   24.7280 N   0  0  0  0  0  2  0  0  0  0  0  0
   16.9010    9.1320   28.2710 N   0  0  0  0  0  2  0  0  0  0  0  0
   19.0720   10.6930   20.8900 N   0  0  0  0  0  0  0  0  0  0  0  0
   18.6990   13.8840   28.0000 O   0  0  0  0  0  1  0  0  0  0  0  0
   15.1740   10.3660   27.5010 O   0  0  0  0  0  1  0  0  0  0  0  0
   20.0400   10.8660   20.1810 O   0  0  0  0  0  1  0  0  0  0  0  0
   18.2590    9.8140   20.7120 O   0  0  0  0  0  1  0  0  0  0  0  0
   20.4080   12.6950   25.3120 O   0  0  0  0  0  1  0  0  0  0  0  0
   20.6140   14.3290   29.0720 O   0  0  0  0  0  0  0  0  0  0  0  0
  1 23  1  0
  1 27  1  0
  1 32  1  0
  2  3  1  0
  2  7  1  0
  2 23  1  0
  3  4  1  0
  4  5  1  0
  4  6  1  0
  7 24  1  0
  7 31  1  0
  8  9  1  0
  8 14  1  0
  8 24  1  0
  9 10  1  0
 10 11  1  0
 10 13  1  0
 11 12  1  0
 12 25  1  0
 13 25  1  0
 13 28  1  0
 14 15  1  0
 15 26  1  0
 16 17  1  0
 16 32  1  0
 17 18  1  0
 17 22  1  0
 18 19  1  0
 19 20  1  0
 20 21  1  0
 21 22  1  0
 26 29  1  0
 26 30  1  0
M  END
$$$$
