8c9o_E_O6K_401
     RDKit          3D

 43 46  0  0  0  0  0  0  0  0999 V2000
  -23.7740   -4.1280   29.4180 C   0  0  0  0  0  2  0  0  0  0  0  0
  -23.8850   -5.6220   29.5170 C   0  0  0  0  0  3  0  0  0  0  0  0
  -23.4780   -6.4250   28.4580 C   0  0  0  0  0  2  0  0  0  0  0  0
  -22.7350   -6.1230   20.9520 C   0  0  0  0  0  2  0  0  0  0  0  0
  -22.6840   -7.2780   20.2740 C   0  0  0  0  0  2  0  0  0  0  0  0
  -21.4480   -7.8520   20.0190 C   0  0  0  0  0  2  0  0  0  0  0  0
  -20.2810   -7.2090   20.4640 C   0  0  0  0  0  3  0  0  0  0  0  0
  -21.7160   -4.2760   22.2090 C   0  0  0  0  0  3  0  0  0  0  0  0
  -20.3250   -6.0310   21.1850 C   0  0  0  0  0  3  0  0  0  0  0  0
  -23.0110   -3.4790   22.0550 C   0  0  0  0  0  2  0  0  0  0  0  0
  -23.5560   -7.8060   28.5480 C   0  0  0  0  0  2  0  0  0  0  0  0
  -18.6800   -9.0090   20.0190 C   0  0  0  0  0  3  0  0  0  0  0  0
  -24.0400   -8.3880   29.6940 C   0  0  0  0  0  2  0  0  0  0  0  0
  -24.4390   -7.6030   30.7540 C   0  0  0  0  0  2  0  0  0  0  0  0
  -16.6540  -10.4330   19.9240 C   0  0  0  0  0  0  0  0  0  0  0  0
  -24.3760   -6.2210   30.6650 C   0  0  0  0  0  2  0  0  0  0  0  0
  -23.2050   -2.9820   20.6570 C   0  0  0  0  0  3  0  0  0  0  0  0
  -24.0410   -1.7790   20.3790 C   0  0  0  0  0  2  0  0  0  0  0  0
  -17.1900  -11.6220   20.7070 C   0  0  0  0  0  1  0  0  0  0  0  0
  -15.2070  -10.1550   20.2770 C   0  0  0  0  0  1  0  0  0  0  0  0
  -16.8200  -10.6030   18.4270 C   0  0  0  0  0  1  0  0  0  0  0  0
  -22.5550   -1.7090   20.2180 C   0  0  0  0  0  2  0  0  0  0  0  0
  -21.9420   -3.4180   27.9180 C   0  0  0  0  0  3  0  0  0  0  0  0
  -21.5020   -4.7030   23.6440 C   0  0  0  0  0  3  0  0  0  0  0  0
  -20.7030   -4.0640   25.8580 C   0  0  0  0  0  3  0  0  0  0  0  0
  -19.2320   -4.0750   26.2720 C   0  0  0  0  0  2  0  0  0  0  0  0
  -18.4860   -5.2810   25.7220 C   0  0  0  0  0  3  0  0  0  0  0  0
  -16.9900   -5.2200   25.9470 C   0  0  0  0  0  3  0  0  0  0  0  0
  -17.6150   -7.4290   26.4220 C   0  0  0  0  0  2  0  0  0  0  0  0
  -18.9110   -6.6290   26.3080 C   0  0  0  0  0  2  0  0  0  0  0  0
  -21.6260   -3.0130   26.5030 C   0  0  0  0  0  3  0  0  0  0  0  0
  -21.5980   -5.4940   21.3840 N   0  0  0  0  0  0  0  0  0  0  0  0
  -18.9900   -7.7140   20.2480 N   0  0  0  0  0  2  0  0  0  0  0  0
  -23.2260   -3.7290   28.1380 N   0  0  0  0  0  2  0  0  0  0  0  0
  -20.8160   -3.8740   24.4280 N   0  0  0  0  0  2  0  0  0  0  0  0
  -16.5740   -6.4020   26.3850 N   0  0  0  0  0  2  0  0  0  0  0  0
  -19.3340   -5.4700   21.6540 O   0  0  0  0  0  1  0  0  0  0  0  0
  -17.3900   -9.2120   20.3280 O   0  0  0  0  0  0  0  0  0  0  0  0
  -19.4540   -9.8300   19.6010 O   0  0  0  0  0  1  0  0  0  0  0  0
  -21.8600   -5.8170   24.0090 O   0  0  0  0  0  1  0  0  0  0  0  0
  -22.8970   -2.9090   25.8200 O   0  0  0  0  0  1  0  0  0  0  0  0
  -21.0340   -3.4580   28.7400 O   0  0  0  0  0  1  0  0  0  0  0  0
  -16.2610   -4.2170   25.7050 O   0  0  0  0  0  1  0  0  0  0  0  0
  1  2  1  0
  1 34  1  0
  2  3  1  0
  2 16  1  0
  3 11  1  0
  4  5  1  0
  4 32  1  0
  5  6  1  0
  6  7  1  0
  7  9  1  0
  7 33  1  0
  8 10  1  0
  8 24  1  0
  8 32  1  0
  9 32  1  0
  9 37  1  0
 10 17  1  0
 11 13  1  0
 12 33  1  0
 12 38  1  0
 12 39  1  0
 13 14  1  0
 14 16  1  0
 15 19  1  0
 15 20  1  0
 15 21  1  0
 15 38  1  0
 17 18  1  0
 17 22  1  0
 18 22  1  0
 23 31  1  0
 23 34  1  0
 23 42  1  0
 24 35  1  0
 24 40  1  0
 25 26  1  0
 25 31  1  0
 25 35  1  0
 26 27  1  0
 27 28  1  0
 27 30  1  0
 28 36  1  0
 28 43  1  0
 29 30  1  0
 29 36  1  0
 31 41  1  0
M  END
$$$$
