8cac_G_O6K_401
     RDKit          3D

 43 46  0  0  0  0  0  0  0  0999 V2000
   23.5430    3.4990  -22.3260 C   0  0  0  0  0  2  0  0  0  0  0  0
   23.8540    4.7710  -21.5740 C   0  0  0  0  0  3  0  0  0  0  0  0
   23.9190    6.0070  -22.2090 C   0  0  0  0  0  2  0  0  0  0  0  0
   22.8680    5.3500  -30.8150 C   0  0  0  0  0  2  0  0  0  0  0  0
   22.7870    6.5280  -31.4560 C   0  0  0  0  0  2  0  0  0  0  0  0
   21.5400    7.0480  -31.7630 C   0  0  0  0  0  2  0  0  0  0  0  0
   20.4000    6.3350  -31.4030 C   0  0  0  0  0  3  0  0  0  0  0  0
   21.8690    3.4010  -29.7060 C   0  0  0  0  0  3  0  0  0  0  0  0
   20.4720    5.1190  -30.7460 C   0  0  0  0  0  3  0  0  0  0  0  0
   23.1400    2.5990  -29.9890 C   0  0  0  0  0  2  0  0  0  0  0  0
   24.2320    7.1530  -21.4880 C   0  0  0  0  0  2  0  0  0  0  0  0
   18.7120    8.0890  -31.6180 C   0  0  0  0  0  3  0  0  0  0  0  0
   24.4920    7.0750  -20.1350 C   0  0  0  0  0  2  0  0  0  0  0  0
   24.4480    5.8560  -19.4980 C   0  0  0  0  0  2  0  0  0  0  0  0
   16.5930    9.2850  -31.9530 C   0  0  0  0  0  0  0  0  0  0  0  0
   24.1340    4.7090  -20.2140 C   0  0  0  0  0  2  0  0  0  0  0  0
   23.2240    2.1560  -31.4210 C   0  0  0  0  0  3  0  0  0  0  0  0
   24.0710    0.9830  -31.7980 C   0  0  0  0  0  2  0  0  0  0  0  0
   16.8630   10.4290  -30.9940 C   0  0  0  0  0  1  0  0  0  0  0  0
   15.1540    8.8250  -31.8790 C   0  0  0  0  0  1  0  0  0  0  0  0
   16.9880    9.6260  -33.3790 C   0  0  0  0  0  1  0  0  0  0  0  0
   22.5880    0.8760  -31.8600 C   0  0  0  0  0  2  0  0  0  0  0  0
   21.6520    2.7830  -23.6980 C   0  0  0  0  0  3  0  0  0  0  0  0
   21.6990    3.8210  -28.2410 C   0  0  0  0  0  3  0  0  0  0  0  0
   20.8840    3.2550  -26.0010 C   0  0  0  0  0  3  0  0  0  0  0  0
   19.3770    3.3530  -25.7690 C   0  0  0  0  0  2  0  0  0  0  0  0
   18.6630    4.3720  -26.6630 C   0  0  0  0  0  3  0  0  0  0  0  0
   17.1850    4.4840  -26.3380 C   0  0  0  0  0  3  0  0  0  0  0  0
   18.0350    6.6440  -26.0800 C   0  0  0  0  0  2  0  0  0  0  0  0
   19.1610    5.8180  -26.6760 C   0  0  0  0  0  2  0  0  0  0  0  0
   21.5500    2.2200  -25.1000 C   0  0  0  0  0  3  0  0  0  0  0  0
   21.7510    4.6340  -30.5020 N   0  0  0  0  0  0  0  0  0  0  0  0
   19.1060    6.8040  -31.6740 N   0  0  0  0  0  2  0  0  0  0  0  0
   22.6350    3.6470  -23.4500 N   0  0  0  0  0  2  0  0  0  0  0  0
   21.1990    2.9290  -27.3810 N   0  0  0  0  0  2  0  0  0  0  0  0
   16.8790    5.7560  -26.1440 N   0  0  0  0  0  2  0  0  0  0  0  0
   19.5060    4.4550  -30.3890 O   0  0  0  0  0  1  0  0  0  0  0  0
   17.3760    8.1240  -31.4720 O   0  0  0  0  0  0  0  0  0  0  0  0
   19.4520    9.0390  -31.7060 O   0  0  0  0  0  1  0  0  0  0  0  0
   21.9100    4.9860  -27.9070 O   0  0  0  0  0  1  0  0  0  0  0  0
   22.8390    1.8830  -25.5960 O   0  0  0  0  0  1  0  0  0  0  0  0
   20.8450    2.4000  -22.8570 O   0  0  0  0  0  1  0  0  0  0  0  0
   16.3940    3.5240  -26.2590 O   0  0  0  0  0  1  0  0  0  0  0  0
  1  2  1  0
  1 34  1  0
  2  3  1  0
  2 16  1  0
  3 11  1  0
  4  5  1  0
  4 32  1  0
  5  6  1  0
  6  7  1  0
  7  9  1  0
  7 33  1  0
  8 10  1  0
  8 24  1  0
  8 32  1  0
  9 32  1  0
  9 37  1  0
 10 17  1  0
 11 13  1  0
 12 33  1  0
 12 38  1  0
 12 39  1  0
 13 14  1  0
 14 16  1  0
 15 19  1  0
 15 20  1  0
 15 21  1  0
 15 38  1  0
 17 18  1  0
 17 22  1  0
 18 22  1  0
 23 31  1  0
 23 34  1  0
 23 42  1  0
 24 35  1  0
 24 40  1  0
 25 26  1  0
 25 31  1  0
 25 35  1  0
 26 27  1  0
 27 28  1  0
 27 30  1  0
 28 36  1  0
 28 43  1  0
 29 30  1  0
 29 36  1  0
 31 41  1  0
M  END
$$$$
