8cac_H_O6K_401
     RDKit          3D

 43 46  0  0  0  0  0  0  0  0999 V2000
  -11.8820  -16.7020   -2.4910 C   0  0  0  0  0  2  0  0  0  0  0  0
  -12.7570  -17.3660   -3.5220 C   0  0  0  0  0  3  0  0  0  0  0  0
  -14.0010  -16.8360   -3.8500 C   0  0  0  0  0  2  0  0  0  0  0  0
  -18.9030  -11.2890   -2.0070 C   0  0  0  0  0  2  0  0  0  0  0  0
  -20.1400  -11.1550   -2.5180 C   0  0  0  0  0  2  0  0  0  0  0  0
  -20.3260  -10.3890   -3.6620 C   0  0  0  0  0  2  0  0  0  0  0  0
  -19.2250   -9.7690   -4.2670 C   0  0  0  0  0  3  0  0  0  0  0  0
  -16.4830  -10.8250   -1.9880 C   0  0  0  0  0  3  0  0  0  0  0  0
  -17.9410   -9.8920   -3.7380 C   0  0  0  0  0  3  0  0  0  0  0  0
  -16.4680  -11.2270   -0.5110 C   0  0  0  0  0  2  0  0  0  0  0  0
  -14.8000  -17.4570   -4.8030 C   0  0  0  0  0  2  0  0  0  0  0  0
  -20.1880   -9.2090   -6.4700 C   0  0  0  0  0  3  0  0  0  0  0  0
  -14.3710  -18.6140   -5.4240 C   0  0  0  0  0  2  0  0  0  0  0  0
  -13.1370  -19.1460   -5.1060 C   0  0  0  0  0  2  0  0  0  0  0  0
  -20.8200   -8.0300   -8.5600 C   0  0  0  0  0  0  0  0  0  0  0  0
  -12.3310  -18.5270   -4.1580 C   0  0  0  0  0  2  0  0  0  0  0  0
  -17.1030  -10.2250    0.4190 C   0  0  0  0  0  3  0  0  0  0  0  0
  -16.6980  -10.2000    1.8590 C   0  0  0  0  0  2  0  0  0  0  0  0
  -21.1930   -9.3390   -9.2420 C   0  0  0  0  0  1  0  0  0  0  0  0
  -20.0710   -7.1080   -9.5040 C   0  0  0  0  0  1  0  0  0  0  0  0
  -22.0210   -7.3310   -7.9530 C   0  0  0  0  0  1  0  0  0  0  0  0
  -16.3210   -9.0710    0.9580 C   0  0  0  0  0  2  0  0  0  0  0  0
  -11.9530  -14.3000   -2.9170 C   0  0  0  0  0  3  0  0  0  0  0  0
  -15.6920  -11.8190   -2.8250 C   0  0  0  0  0  3  0  0  0  0  0  0
  -13.4770  -12.4140   -3.6800 C   0  0  0  0  0  3  0  0  0  0  0  0
  -12.8010  -11.7400   -4.8740 C   0  0  0  0  0  2  0  0  0  0  0  0
  -13.8250  -11.2700   -5.9160 C   0  0  0  0  0  3  0  0  0  0  0  0
  -13.2800  -10.4340   -7.0640 C   0  0  0  0  0  3  0  0  0  0  0  0
  -14.4820  -12.1550   -8.0970 C   0  0  0  0  0  2  0  0  0  0  0  0
  -14.6080  -12.3960   -6.5960 C   0  0  0  0  0  2  0  0  0  0  0  0
  -12.5900  -12.9760   -2.5460 C   0  0  0  0  0  3  0  0  0  0  0  0
  -17.8250  -10.6600   -2.5700 N   0  0  0  0  0  0  0  0  0  0  0  0
  -19.3610   -8.9830   -5.4270 N   0  0  0  0  0  2  0  0  0  0  0  0
  -12.2910  -15.3460   -2.1720 N   0  0  0  0  0  2  0  0  0  0  0  0
  -14.4240  -11.4880   -3.0860 N   0  0  0  0  0  2  0  0  0  0  0  0
  -13.7890  -10.8770   -8.2040 N   0  0  0  0  0  2  0  0  0  0  0  0
  -16.9340   -9.3820   -4.2110 O   0  0  0  0  0  1  0  0  0  0  0  0
  -19.8980   -8.3200   -7.4360 O   0  0  0  0  0  0  0  0  0  0  0  0
  -21.0300  -10.0690   -6.5210 O   0  0  0  0  0  1  0  0  0  0  0  0
  -16.2050  -12.8760   -3.1870 O   0  0  0  0  0  1  0  0  0  0  0  0
  -13.3950  -13.2260   -1.3960 O   0  0  0  0  0  1  0  0  0  0  0  0
  -11.1950  -14.3700   -3.8760 O   0  0  0  0  0  1  0  0  0  0  0  0
  -12.5090   -9.4630   -6.9600 O   0  0  0  0  0  1  0  0  0  0  0  0
  1  2  1  0
  1 34  1  0
  2  3  1  0
  2 16  1  0
  3 11  1  0
  4  5  1  0
  4 32  1  0
  5  6  1  0
  6  7  1  0
  7  9  1  0
  7 33  1  0
  8 10  1  0
  8 24  1  0
  8 32  1  0
  9 32  1  0
  9 37  1  0
 10 17  1  0
 11 13  1  0
 12 33  1  0
 12 38  1  0
 12 39  1  0
 13 14  1  0
 14 16  1  0
 15 19  1  0
 15 20  1  0
 15 21  1  0
 15 38  1  0
 17 18  1  0
 17 22  1  0
 18 22  1  0
 23 31  1  0
 23 34  1  0
 23 42  1  0
 24 35  1  0
 24 40  1  0
 25 26  1  0
 25 31  1  0
 25 35  1  0
 26 27  1  0
 27 28  1  0
 27 30  1  0
 28 36  1  0
 28 43  1  0
 29 30  1  0
 29 36  1  0
 31 41  1  0
M  END
$$$$
