8caj_I_UAX_401
     RDKit          3D

 43 46  0  0  0  0  0  0  0  0999 V2000
  -11.3080   -5.2760    1.2430 C   0  0  0  0  0  2  0  0  0  0  0  0
  -10.1830   -5.3070    0.2380 C   0  0  0  0  0  3  0  0  0  0  0  0
   -9.7940   -4.1700   -0.4550 C   0  0  0  0  0  2  0  0  0  0  0  0
  -16.1840    0.6060   -1.1550 C   0  0  0  0  0  2  0  0  0  0  0  0
  -16.1280    1.6490   -2.0040 C   0  0  0  0  0  2  0  0  0  0  0  0
  -15.8190    2.9130   -1.5110 C   0  0  0  0  0  2  0  0  0  0  0  0
  -15.5680    3.0760   -0.1420 C   0  0  0  0  0  3  0  0  0  0  0  0
  -15.9970   -0.4040    1.0890 C   0  0  0  0  0  3  0  0  0  0  0  0
  -15.6220    2.0030    0.7400 C   0  0  0  0  0  3  0  0  0  0  0  0
  -16.9150   -1.5340    0.6120 C   0  0  0  0  0  2  0  0  0  0  0  0
   -8.7430   -4.2280   -1.3600 C   0  0  0  0  0  2  0  0  0  0  0  0
  -14.6390    5.3680   -0.1370 C   0  0  0  0  0  3  0  0  0  0  0  0
   -8.0610   -5.4060   -1.5660 C   0  0  0  0  0  2  0  0  0  0  0  0
   -8.4290   -6.5350   -0.8780 C   0  0  0  0  0  2  0  0  0  0  0  0
  -15.1150    7.6040    0.8040 C   0  0  0  0  0  0  0  0  0  0  0  0
   -9.4830   -6.4860    0.0230 C   0  0  0  0  0  2  0  0  0  0  0  0
  -18.3780   -1.2160    0.7730 C   0  0  0  0  0  3  0  0  0  0  0  0
  -19.2010   -1.9680    1.7710 C   0  0  0  0  0  2  0  0  0  0  0  0
  -14.7370    8.7470   -0.1110 C   0  0  0  0  0  1  0  0  0  0  0  0
  -16.3950    7.9120    1.5460 C   0  0  0  0  0  1  0  0  0  0  0  0
  -13.9900    7.2710    1.7600 C   0  0  0  0  0  1  0  0  0  0  0  0
  -19.4270   -2.1790    0.3140 C   0  0  0  0  0  2  0  0  0  0  0  0
  -13.2030   -3.8870    1.9210 C   0  0  0  0  0  3  0  0  0  0  0  0
  -14.5760   -0.9010    1.3090 C   0  0  0  0  0  3  0  0  0  0  0  0
  -12.8830   -1.7030    2.8890 C   0  0  0  0  0  3  0  0  0  0  0  0
  -12.3530   -0.7980    3.9930 C   0  0  0  0  0  2  0  0  0  0  0  0
  -11.0600   -0.1330    3.5320 C   0  0  0  0  0  3  0  0  0  0  0  0
  -10.6100    1.0170    4.4080 C   0  0  0  0  0  3  0  0  0  0  0  0
   -9.9400    1.5530    2.2380 C   0  0  0  0  0  2  0  0  0  0  0  0
  -11.0430    0.5040    2.1490 C   0  0  0  0  0  2  0  0  0  0  0  0
  -12.7590   -3.1960    3.2000 C   0  0  0  0  0  3  0  0  0  0  0  0
  -15.9620    0.7630    0.1880 N   0  0  0  0  0  0  0  0  0  0  0  0
  -15.2450    4.3110    0.4490 N   0  0  0  0  0  2  0  0  0  0  0  0
  -12.2770   -4.2210    1.0250 N   0  0  0  0  0  2  0  0  0  0  0  0
  -14.2450   -1.3320    2.5320 N   0  0  0  0  0  2  0  0  0  0  0  0
   -9.8510    1.8190    3.6700 N   0  0  0  0  0  2  0  0  0  0  0  0
  -15.4050    2.0760    1.9410 O   0  0  0  0  0  1  0  0  0  0  0  0
  -15.4560    6.4280   -0.0270 O   0  0  0  0  0  0  0  0  0  0  0  0
  -13.5560    5.3560   -0.6690 O   0  0  0  0  0  1  0  0  0  0  0  0
  -13.7810   -0.8840    0.3740 O   0  0  0  0  0  1  0  0  0  0  0  0
  -11.4280   -3.5390    3.5570 O   0  0  0  0  0  1  0  0  0  0  0  0
  -14.4040   -4.0730    1.7290 O   0  0  0  0  0  1  0  0  0  0  0  0
  -10.8940    1.1790    5.6100 O   0  0  0  0  0  1  0  0  0  0  0  0
  1  2  1  0
  1 34  1  0
  2  3  1  0
  2 16  1  0
  3 11  1  0
  4  5  1  0
  4 32  1  0
  5  6  1  0
  6  7  1  0
  7  9  1  0
  7 33  1  0
  8 10  1  0
  8 24  1  0
  8 32  1  0
  9 32  1  0
  9 37  1  0
 10 17  1  0
 11 13  1  0
 12 33  1  0
 12 38  1  0
 12 39  1  0
 13 14  1  0
 14 16  1  0
 15 19  1  0
 15 20  1  0
 15 21  1  0
 15 38  1  0
 17 18  1  0
 17 22  1  0
 18 22  1  0
 23 31  1  0
 23 34  1  0
 23 42  1  0
 24 35  1  0
 24 40  1  0
 25 26  1  0
 25 31  1  0
 25 35  1  0
 26 27  1  0
 27 28  1  0
 27 30  1  0
 28 36  1  0
 28 43  1  0
 29 30  1  0
 29 36  1  0
 31 41  1  0
M  END
$$$$
