8dcz_A_4WI_401
     RDKit          3D

 35 37  0  0  0  0  0  0  0  0999 V2000
   24.8920   -1.6220   14.2900 C   0  0  0  0  0  3  0  0  0  0  0  0
   26.9960   -0.0530   12.0690 C   0  0  0  0  0  2  0  0  0  0  0  0
   26.9850   -1.4810   11.5650 C   0  0  0  0  0  3  0  0  0  0  0  0
   25.6980   -2.1420   12.0080 C   0  0  0  0  0  3  0  0  0  0  0  0
   25.2480    1.2350   13.2880 C   0  0  0  0  0  3  0  0  0  0  0  0
   26.2410    2.3910   13.3970 C   0  0  0  0  0  3  0  0  0  0  0  0
   26.7630    2.6350   14.8290 C   0  0  0  0  0  0  0  0  0  0  0  0
   27.5220    1.4050   15.3490 C   0  0  0  0  0  1  0  0  0  0  0  0
   25.6220    2.9440   15.8090 C   0  0  0  0  0  1  0  0  0  0  0  0
   25.9640   -1.8920   10.5420 C   0  0  0  0  0  0  0  0  0  0  0  0
   25.1290   -0.8640    9.8100 C   0  0  0  0  0  1  0  0  0  0  0  0
   23.5130   -2.6370   16.0290 C   0  0  0  0  0  3  0  0  0  0  0  0
   26.3470   -3.0550    9.6520 C   0  0  0  0  0  1  0  0  0  0  0  0
   26.1460    4.3450   11.9140 C   0  0  0  0  0  3  0  0  0  0  0  0
   25.5730    5.7670   11.8220 C   0  0  0  0  0  0  0  0  0  0  0  0
   27.7210    3.8320   14.7980 C   0  0  0  0  0  1  0  0  0  0  0  0
   23.0550   -4.0840   16.0710 C   0  0  0  0  0  2  0  0  0  0  0  0
   22.4920   -1.6860   16.6550 C   0  0  0  0  0  2  0  0  0  0  0  0
   23.1270   -0.3840   17.1460 C   0  0  0  0  0  3  0  0  0  0  0  0
   24.3020   -0.4220   18.1330 C   0  0  0  0  0  2  0  0  0  0  0  0
   24.1900    0.8930   18.8750 C   0  0  0  0  0  2  0  0  0  0  0  0
   22.1070    0.4520   17.8830 C   0  0  0  0  0  3  0  0  0  0  0  0
   24.9330   -1.1370   12.8500 C   0  0  0  0  0  3  0  0  0  0  0  0
   25.4220    6.3200   13.0240 F   0  0  0  0  0  0  0  0  0  0  0  0
   24.3680    5.7730   11.2610 F   0  0  0  0  0  0  0  0  0  0  0  0
   26.3480    6.5810   11.1150 F   0  0  0  0  0  0  0  0  0  0  0  0
   23.7650   -2.2450   14.6570 N   0  0  0  0  0  2  0  0  0  0  0  0
   22.7550    1.1760   18.8070 N   0  0  0  0  0  2  0  0  0  0  0  0
   25.7020    0.0990   12.7430 N   0  0  0  0  0  0  0  0  0  0  0  0
   25.6060    3.5740   12.8570 N   0  0  0  0  0  2  0  0  0  0  0  0
   23.5510   -5.0200   16.7850 N   0  0  0  0  0  1  0  0  0  0  0  0
   20.8780    0.4480   17.6470 O   0  0  0  0  0  1  0  0  0  0  0  0
   25.8620   -1.4730   15.0260 O   0  0  0  0  0  1  0  0  0  0  0  0
   24.0990    1.3210   13.7250 O   0  0  0  0  0  1  0  0  0  0  0  0
   27.1030    4.0320   11.2350 O   0  0  0  0  0  1  0  0  0  0  0  0
  1 23  1  0
  1 27  1  0
  1 33  1  0
  2  3  1  0
  2 29  1  0
  3  4  1  0
  3 10  1  0
  4 10  1  0
  4 23  1  0
  5  6  1  0
  5 29  1  0
  5 34  1  0
  6  7  1  0
  6 30  1  0
  7  8  1  0
  7  9  1  0
  7 16  1  0
 10 11  1  0
 10 13  1  0
 12 17  1  0
 12 18  1  0
 12 27  1  0
 14 15  1  0
 14 30  1  0
 14 35  1  0
 15 24  1  0
 15 25  1  0
 15 26  1  0
 17 31  1  0
 18 19  1  0
 19 20  1  0
 19 22  1  0
 20 21  1  0
 21 28  1  0
 22 28  1  0
 22 32  1  0
 23 29  1  0
M  END
$$$$
