8dcz_B_4WI_401
     RDKit          3D

 35 37  0  0  0  0  0  0  0  0999 V2000
  -12.6700   -2.2760   42.1890 C   0  0  0  0  0  3  0  0  0  0  0  0
  -14.7440   -0.6950   44.5100 C   0  0  0  0  0  2  0  0  0  0  0  0
  -14.8080   -2.1430   44.9380 C   0  0  0  0  0  3  0  0  0  0  0  0
  -13.5550   -2.8430   44.4520 C   0  0  0  0  0  3  0  0  0  0  0  0
  -12.9800    0.5060   43.2130 C   0  0  0  0  0  3  0  0  0  0  0  0
  -13.9110    1.7170   43.1620 C   0  0  0  0  0  3  0  0  0  0  0  0
  -14.4120    2.0520   41.7430 C   0  0  0  0  0  0  0  0  0  0  0  0
  -15.1480    0.8410   41.1560 C   0  0  0  0  0  1  0  0  0  0  0  0
  -13.2500    2.4460   40.8210 C   0  0  0  0  0  1  0  0  0  0  0  0
  -13.7940   -2.6470   45.9350 C   0  0  0  0  0  0  0  0  0  0  0  0
  -12.9560   -1.6600   46.7260 C   0  0  0  0  0  1  0  0  0  0  0  0
  -11.2780   -3.1500   40.3910 C   0  0  0  0  0  3  0  0  0  0  0  0
  -14.1720   -3.8720   46.7450 C   0  0  0  0  0  1  0  0  0  0  0  0
  -13.8880    3.6020   44.7020 C   0  0  0  0  0  3  0  0  0  0  0  0
  -13.3750    5.0390   44.8480 C   0  0  0  0  0  0  0  0  0  0  0  0
  -15.3870    3.2300   41.7890 C   0  0  0  0  0  1  0  0  0  0  0  0
  -10.7770   -4.5590   40.2390 C   0  0  0  0  0  2  0  0  0  0  0  0
  -10.2770   -2.1600   39.7950 C   0  0  0  0  0  2  0  0  0  0  0  0
  -10.9070   -0.8360   39.3400 C   0  0  0  0  0  3  0  0  0  0  0  0
  -12.0790   -0.8820   38.3750 C   0  0  0  0  0  2  0  0  0  0  0  0
  -12.0110    0.4540   37.6430 C   0  0  0  0  0  2  0  0  0  0  0  0
   -9.9200    0.0430   38.6010 C   0  0  0  0  0  3  0  0  0  0  0  0
  -12.7380   -1.8520   43.6510 C   0  0  0  0  0  3  0  0  0  0  0  0
  -13.3630    5.6770   43.6820 F   0  0  0  0  0  0  0  0  0  0  0  0
  -12.1330    5.0490   45.3100 F   0  0  0  0  0  0  0  0  0  0  0  0
  -14.1090    5.7690   45.6790 F   0  0  0  0  0  0  0  0  0  0  0  0
  -11.5290   -2.8690   41.7910 N   0  0  0  0  0  2  0  0  0  0  0  0
  -10.5830    0.7440   37.6740 N   0  0  0  0  0  2  0  0  0  0  0  0
  -13.4720   -0.6000   43.7780 N   0  0  0  0  0  0  0  0  0  0  0  0
  -13.2660    2.8530   43.7900 N   0  0  0  0  0  2  0  0  0  0  0  0
  -11.2540   -5.3440   39.3640 N   0  0  0  0  0  1  0  0  0  0  0  0
   -8.6990    0.0940   38.8290 O   0  0  0  0  0  1  0  0  0  0  0  0
  -13.6210   -2.0630   41.4360 O   0  0  0  0  0  1  0  0  0  0  0  0
  -11.8510    0.5130   42.7370 O   0  0  0  0  0  1  0  0  0  0  0  0
  -14.8780    3.2530   45.3140 O   0  0  0  0  0  1  0  0  0  0  0  0
  1 23  1  0
  1 27  1  0
  1 33  1  0
  2  3  1  0
  2 29  1  0
  3  4  1  0
  3 10  1  0
  4 10  1  0
  4 23  1  0
  5  6  1  0
  5 29  1  0
  5 34  1  0
  6  7  1  0
  6 30  1  0
  7  8  1  0
  7  9  1  0
  7 16  1  0
 10 11  1  0
 10 13  1  0
 12 17  1  0
 12 18  1  0
 12 27  1  0
 14 15  1  0
 14 30  1  0
 14 35  1  0
 15 24  1  0
 15 25  1  0
 15 26  1  0
 17 31  1  0
 18 19  1  0
 19 20  1  0
 19 22  1  0
 20 21  1  0
 21 28  1  0
 22 28  1  0
 22 32  1  0
 23 29  1  0
M  END
$$$$
