8ddm_A_K36_401
     RDKit          3D

 29 30  0  0  0  0  0  0  0  0999 V2000
    7.8870    3.8320   22.7860 C   0  0  0  0  0  3  0  0  0  0  0  0
   10.4130   -0.7760   22.1210 C   0  0  0  0  0  3  0  0  0  0  0  0
   11.1350   -1.7950   22.9840 C   0  0  0  0  0  2  0  0  0  0  0  0
   12.5380   -1.2960   23.2890 C   0  0  0  0  0  3  0  0  0  0  0  0
   13.1560   -2.1780   24.3660 C   0  0  0  0  0  1  0  0  0  0  0  0
   13.3760   -1.3950   22.0210 C   0  0  0  0  0  1  0  0  0  0  0  0
    9.0270   -1.3180   21.8320 C   0  0  0  0  0  3  0  0  0  0  0  0
    7.3320    2.6340   23.2030 C   0  0  0  0  0  2  0  0  0  0  0  0
    7.2700   -2.0000   20.1730 C   0  0  0  0  0  3  0  0  0  0  0  0
    7.4910   -3.4440   19.7460 C   0  0  0  0  0  2  0  0  0  0  0  0
    6.6340   -1.2150   19.0340 C   0  0  0  0  0  2  0  0  0  0  0  0
    6.5890    0.2950   19.3880 C   0  0  0  0  0  3  0  0  0  0  0  0
    5.6020    0.4810   20.4800 C   0  0  0  0  0  2  0  0  0  0  0  0
    4.8010    1.7380   20.1120 C   0  0  0  0  0  2  0  0  0  0  0  0
    6.1310    1.0820   18.2010 C   0  0  0  0  0  3  0  0  0  0  0  0
    5.9890    2.5560   23.5090 C   0  0  0  0  0  2  0  0  0  0  0  0
    5.1910    3.6780   23.4000 C   0  0  0  0  0  2  0  0  0  0  0  0
    5.7370    4.8770   22.9850 C   0  0  0  0  0  2  0  0  0  0  0  0
    7.0820    4.9510   22.6800 C   0  0  0  0  0  2  0  0  0  0  0  0
    9.3700    3.9470   22.4320 C   0  0  0  0  0  2  0  0  0  0  0  0
   10.0280    1.6850   22.1960 C   0  0  0  0  0  3  0  0  0  0  0  0
   10.3130    0.4460   22.8680 N   0  0  0  0  0  2  0  0  0  0  0  0
    8.5800   -1.4640   20.4640 N   0  0  0  0  0  2  0  0  0  0  0  0
    5.0360    1.9710   18.6280 N   0  0  0  0  0  2  0  0  0  0  0  0
    9.7160    1.6820   21.0620 O   0  0  0  0  0  1  0  0  0  0  0  0
    8.3240   -1.6210   22.7280 O   0  0  0  0  0  1  0  0  0  0  0  0
    6.2730   -3.8720   19.1580 O   0  0  0  0  0  1  0  0  0  0  0  0
    6.5620    1.0170   17.1110 O   0  0  0  0  0  1  0  0  0  0  0  0
   10.1120    2.8720   22.9210 O   0  0  0  0  0  0  0  0  0  0  0  0
  1  8  1  0
  1 19  1  0
  1 20  1  0
  2  3  1  0
  2  7  1  0
  2 22  1  0
  3  4  1  0
  4  5  1  0
  4  6  1  0
  7 23  1  0
  7 26  1  0
  8 16  1  0
  9 10  1  0
  9 11  1  0
  9 23  1  0
 10 27  1  0
 11 12  1  0
 12 13  1  0
 12 15  1  0
 13 14  1  0
 14 24  1  0
 15 24  1  0
 15 28  1  0
 16 17  1  0
 17 18  1  0
 18 19  1  0
 20 29  1  0
 21 22  1  0
 21 25  1  0
 21 29  1  0
M  END
$$$$
