8dgb_B_B1S_401
     RDKit          3D

 29 30  0  0  0  0  0  0  0  0999 V2000
  -20.9600    4.2370   14.6440 C   0  0  0  0  0  3  0  0  0  0  0  0
  -19.9300   -1.0570   14.2320 C   0  0  0  0  0  3  0  0  0  0  0  0
  -20.7610   -2.0760   14.9860 C   0  0  0  0  0  2  0  0  0  0  0  0
  -20.8500   -1.5740   16.4160 C   0  0  0  0  0  3  0  0  0  0  0  0
  -21.9660   -2.3070   17.1470 C   0  0  0  0  0  1  0  0  0  0  0  0
  -19.5120   -1.8400   17.0940 C   0  0  0  0  0  1  0  0  0  0  0  0
  -19.9870   -1.4100   12.7570 C   0  0  0  0  0  3  0  0  0  0  0  0
  -21.9860    5.1370   14.8580 C   0  0  0  0  0  2  0  0  0  0  0  0
  -18.7930   -2.2700   10.7050 C   0  0  0  0  0  3  0  0  0  0  0  0
  -18.2050   -3.6690   10.5520 C   0  0  0  0  0  2  0  0  0  0  0  0
  -17.9190   -1.3240    9.8800 C   0  0  0  0  0  2  0  0  0  0  0  0
  -18.2770    0.1640   10.1580 C   0  0  0  0  0  3  0  0  0  0  0  0
  -19.4990    0.4980    9.3790 C   0  0  0  0  0  2  0  0  0  0  0  0
  -19.1010    1.5870    8.3700 C   0  0  0  0  0  2  0  0  0  0  0  0
  -17.1500    1.0590    9.7240 C   0  0  0  0  0  3  0  0  0  0  0  0
  -22.1450    5.7210   16.1000 C   0  0  0  0  0  2  0  0  0  0  0  0
  -21.2740    5.4050   17.1240 C   0  0  0  0  0  2  0  0  0  0  0  0
  -20.2470    4.5060   16.9120 C   0  0  0  0  0  2  0  0  0  0  0  0
  -20.0910    3.9240   15.6700 C   0  0  0  0  0  2  0  0  0  0  0  0
  -20.7900    3.6010   13.2710 C   0  0  0  0  0  2  0  0  0  0  0  0
  -20.1640    1.3950   13.7210 C   0  0  0  0  0  3  0  0  0  0  0  0
  -20.5180    0.2340   14.4940 N   0  0  0  0  0  2  0  0  0  0  0  0
  -18.7910   -1.8990   12.1050 N   0  0  0  0  0  2  0  0  0  0  0  0
  -17.6410    1.9340    8.6400 N   0  0  0  0  0  2  0  0  0  0  0  0
  -19.0430    1.6050   13.4320 O   0  0  0  0  0  1  0  0  0  0  0  0
  -20.9980   -1.2960   12.1610 O   0  0  0  0  0  1  0  0  0  0  0  0
  -19.2000   -4.6510   10.8030 O   0  0  0  0  0  1  0  0  0  0  0  0
  -16.0590    1.0820   10.1690 O   0  0  0  0  0  1  0  0  0  0  0  0
  -21.1750    2.2670   13.3300 O   0  0  0  0  0  0  0  0  0  0  0  0
  1  8  1  0
  1 19  1  0
  1 20  1  0
  2  3  1  0
  2  7  1  0
  2 22  1  0
  3  4  1  0
  4  5  1  0
  4  6  1  0
  7 23  1  0
  7 26  1  0
  8 16  1  0
  9 10  1  0
  9 11  1  0
  9 23  1  0
 10 27  1  0
 11 12  1  0
 12 13  1  0
 12 15  1  0
 13 14  1  0
 14 24  1  0
 15 24  1  0
 15 28  1  0
 16 17  1  0
 17 18  1  0
 18 19  1  0
 20 29  1  0
 21 22  1  0
 21 25  1  0
 21 29  1  0
M  END
$$$$
