8dsu_B_V2M_504
     RDKit          3D

 34 36  0  0  0  0  0  0  0  0999 V2000
  -23.6920  -23.7960   -4.5310 C   0  0  0  0  0  1  0  0  0  0  0  0
  -21.7340  -22.8860   -0.5500 C   0  0  0  0  0  2  0  0  0  0  0  0
  -21.9440  -22.0980   -1.6320 C   0  0  0  0  0  3  0  0  0  0  0  0
  -20.5480  -22.6410    1.7220 C   0  0  0  0  0  3  0  0  0  0  0  0
  -20.4150  -24.4840    3.3690 C   0  0  0  0  0  3  0  0  0  0  0  0
  -21.0670  -25.8390    3.6270 C   0  0  0  0  0  2  0  0  0  0  0  0
  -22.4980  -25.6310    4.0810 C   0  0  0  0  0  3  0  0  0  0  0  0
  -23.2190  -26.9650    4.1340 C   0  0  0  0  0  1  0  0  0  0  0  0
  -22.5080  -25.0240    5.4690 C   0  0  0  0  0  1  0  0  0  0  0  0
  -18.9100  -24.6680    3.3290 C   0  0  0  0  0  3  0  0  0  0  0  0
  -16.7760  -24.5040    4.6680 C   0  0  0  0  0  3  0  0  0  0  0  0
  -16.1040  -23.1570    4.9030 C   0  0  0  0  0  2  0  0  0  0  0  0
  -16.0500  -22.2890    3.5130 C   0  0  0  0  0  3  0  0  0  0  0  0
  -15.3660  -22.8690    2.7070 C   0  0  0  0  0  2  0  0  0  0  0  0
  -22.6900  -22.3680   -2.9830 C   0  0  0  0  0  3  0  0  0  0  0  0
  -14.4290  -21.6940    1.8980 C   0  0  0  0  0  2  0  0  0  0  0  0
  -15.2780  -20.9070    3.8440 C   0  0  0  0  0  3  0  0  0  0  0  0
  -16.6000  -25.3900    5.8870 C   0  0  0  0  0  3  0  0  0  0  0  0
  -17.3980  -26.6530    5.5640 C   0  0  0  0  0  2  0  0  0  0  0  0
  -22.7690  -21.2920   -4.0140 C   0  0  0  0  0  2  0  0  0  0  0  0
  -22.1360  -19.9800   -3.7540 C   0  0  0  0  0  2  0  0  0  0  0  0
  -21.4170  -19.7340   -2.4580 C   0  0  0  0  0  2  0  0  0  0  0  0
  -21.3500  -20.8740   -1.3870 C   0  0  0  0  0  3  0  0  0  0  0  0
  -21.0130  -22.1470    0.3720 C   0  0  0  0  0  3  0  0  0  0  0  0
  -20.8520  -23.9880    2.1010 N   0  0  0  0  0  2  0  0  0  0  0  0
  -18.1970  -24.3560    4.5370 N   0  0  0  0  0  2  0  0  0  0  0  0
  -14.2740  -20.7110    2.6920 N   0  0  0  0  0  2  0  0  0  0  0  0
  -20.7810  -20.9220   -0.1510 N   0  0  0  0  0  2  0  0  0  0  0  0
  -19.9440  -21.9560    2.4390 O   0  0  0  0  0  1  0  0  0  0  0  0
  -23.2760  -23.6050   -3.2130 O   0  0  0  0  0  0  0  0  0  0  0  0
  -18.3550  -25.0430    2.3610 O   0  0  0  0  0  1  0  0  0  0  0  0
  -15.4420  -20.2200    4.7820 O   0  0  0  0  0  1  0  0  0  0  0  0
  -15.2570  -25.6820    6.0520 O   0  0  0  0  0  1  0  0  0  0  0  0
  -17.1770  -27.6480    6.4970 O   0  0  0  0  0  1  0  0  0  0  0  0
  1 30  1  0
  2  3  1  0
  2 24  1  0
  3 15  1  0
  3 23  1  0
  4 24  1  0
  4 25  1  0
  4 29  1  0
  5  6  1  0
  5 10  1  0
  5 25  1  0
  6  7  1  0
  7  8  1  0
  7  9  1  0
 10 26  1  0
 10 31  1  0
 11 12  1  0
 11 18  1  0
 11 26  1  0
 12 13  1  0
 13 14  1  0
 13 17  1  0
 14 16  1  0
 15 20  1  0
 15 30  1  0
 16 27  1  0
 17 27  1  0
 17 32  1  0
 18 19  1  0
 18 33  1  0
 19 34  1  0
 20 21  1  0
 21 22  1  0
 22 23  1  0
 23 28  1  0
 24 28  1  0
M  END
$$$$
