8dt9_B_V2M_502
     RDKit          3D

 34 36  0  0  0  0  0  0  0  0999 V2000
  -23.7490  -23.4630   -4.6610 C   0  0  0  0  0  1  0  0  0  0  0  0
  -21.8040  -22.5660   -0.6720 C   0  0  0  0  0  2  0  0  0  0  0  0
  -22.0370  -21.7520   -1.7430 C   0  0  0  0  0  3  0  0  0  0  0  0
  -20.5330  -22.3880    1.5840 C   0  0  0  0  0  3  0  0  0  0  0  0
  -20.5580  -24.2680    3.2980 C   0  0  0  0  0  3  0  0  0  0  0  0
  -21.1990  -25.6520    3.4170 C   0  0  0  0  0  2  0  0  0  0  0  0
  -22.2600  -25.7510    4.5180 C   0  0  0  0  0  3  0  0  0  0  0  0
  -22.7040  -24.3830    5.0280 C   0  0  0  0  0  1  0  0  0  0  0  0
  -23.4720  -26.5060    3.9790 C   0  0  0  0  0  1  0  0  0  0  0  0
  -19.0400  -24.4500    3.3380 C   0  0  0  0  0  3  0  0  0  0  0  0
  -16.8680  -24.3070    4.5920 C   0  0  0  0  0  3  0  0  0  0  0  0
  -16.1350  -22.9860    4.8280 C   0  0  0  0  0  2  0  0  0  0  0  0
  -16.2780  -22.0250    3.4880 C   0  0  0  0  0  3  0  0  0  0  0  0
  -15.8080  -22.5730    2.5110 C   0  0  0  0  0  2  0  0  0  0  0  0
  -22.8400  -21.9810   -3.0810 C   0  0  0  0  0  3  0  0  0  0  0  0
  -14.4820  -21.6550    1.9250 C   0  0  0  0  0  2  0  0  0  0  0  0
  -15.4600  -20.6450    3.7110 C   0  0  0  0  0  3  0  0  0  0  0  0
  -16.5870  -25.2810    5.7330 C   0  0  0  0  0  3  0  0  0  0  0  0
  -17.1130  -26.6560    5.3230 C   0  0  0  0  0  2  0  0  0  0  0  0
  -22.9270  -20.8770   -4.1030 C   0  0  0  0  0  2  0  0  0  0  0  0
  -22.2540  -19.5770   -3.8450 C   0  0  0  0  0  2  0  0  0  0  0  0
  -21.4900  -19.3720   -2.5630 C   0  0  0  0  0  2  0  0  0  0  0  0
  -21.4070  -20.5350   -1.5020 C   0  0  0  0  0  3  0  0  0  0  0  0
  -21.0280  -21.8600    0.2400 C   0  0  0  0  0  3  0  0  0  0  0  0
  -20.9810  -23.6920    2.0350 N   0  0  0  0  0  2  0  0  0  0  0  0
  -18.3040  -24.1130    4.5430 N   0  0  0  0  0  2  0  0  0  0  0  0
  -14.3630  -20.5870    2.6160 N   0  0  0  0  0  2  0  0  0  0  0  0
  -20.7890  -20.6110   -0.2760 N   0  0  0  0  0  2  0  0  0  0  0  0
  -19.7860  -21.7420    2.2380 O   0  0  0  0  0  1  0  0  0  0  0  0
  -23.4690  -23.2090   -3.3140 O   0  0  0  0  0  0  0  0  0  0  0  0
  -18.4590  -24.8720    2.3950 O   0  0  0  0  0  1  0  0  0  0  0  0
  -15.6670  -19.8350    4.5490 O   0  0  0  0  0  1  0  0  0  0  0  0
  -15.2100  -25.3450    5.9720 O   0  0  0  0  0  1  0  0  0  0  0  0
  -17.1590  -27.5130    6.4310 O   0  0  0  0  0  1  0  0  0  0  0  0
  1 30  1  0
  2  3  1  0
  2 24  1  0
  3 15  1  0
  3 23  1  0
  4 24  1  0
  4 25  1  0
  4 29  1  0
  5  6  1  0
  5 10  1  0
  5 25  1  0
  6  7  1  0
  7  8  1  0
  7  9  1  0
 10 26  1  0
 10 31  1  0
 11 12  1  0
 11 18  1  0
 11 26  1  0
 12 13  1  0
 13 14  1  0
 13 17  1  0
 14 16  1  0
 15 20  1  0
 15 30  1  0
 16 27  1  0
 17 27  1  0
 17 32  1  0
 18 19  1  0
 18 33  1  0
 19 34  1  0
 20 21  1  0
 21 22  1  0
 22 23  1  0
 23 28  1  0
 24 28  1  0
M  END
$$$$
