8dt9_A_V2M_502
     RDKit          3D

 34 36  0  0  0  0  0  0  0  0999 V2000
   13.1810   12.3050   27.1320 C   0  0  0  0  0  1  0  0  0  0  0  0
   11.8250    8.1450   25.9240 C   0  0  0  0  0  2  0  0  0  0  0  0
   11.5660    9.3550   25.3500 C   0  0  0  0  0  3  0  0  0  0  0  0
   11.0520    5.6970   25.5850 C   0  0  0  0  0  3  0  0  0  0  0  0
   11.8560    3.8400   27.1180 C   0  0  0  0  0  3  0  0  0  0  0  0
   12.7860    3.7340   28.3250 C   0  0  0  0  0  2  0  0  0  0  0  0
   14.0220    2.8790   28.0520 C   0  0  0  0  0  3  0  0  0  0  0  0
   14.4850    3.0290   26.6050 C   0  0  0  0  0  1  0  0  0  0  0  0
   15.1430    3.3340   28.9850 C   0  0  0  0  0  1  0  0  0  0  0  0
   10.4710    3.3890   27.5730 C   0  0  0  0  0  3  0  0  0  0  0  0
    8.6740    1.6420   27.6910 C   0  0  0  0  0  3  0  0  0  0  0  0
    7.7570    1.3520   26.5020 C   0  0  0  0  0  2  0  0  0  0  0  0
    7.1950    2.7880   25.9040 C   0  0  0  0  0  3  0  0  0  0  0  0
    6.5480    3.3740   26.7460 C   0  0  0  0  0  2  0  0  0  0  0  0
   12.1160   10.7990   25.6620 C   0  0  0  0  0  3  0  0  0  0  0  0
    5.2440    4.1480   25.9470 C   0  0  0  0  0  2  0  0  0  0  0  0
    6.1790    2.5220   24.6730 C   0  0  0  0  0  3  0  0  0  0  0  0
    8.8530    0.3980   28.5600 C   0  0  0  0  0  3  0  0  0  0  0  0
    9.6200    0.8070   29.8170 C   0  0  0  0  0  2  0  0  0  0  0  0
   11.6400   11.9720   24.8450 C   0  0  0  0  0  2  0  0  0  0  0  0
   10.6560   11.7600   23.7510 C   0  0  0  0  0  2  0  0  0  0  0  0
   10.1400   10.3740   23.4650 C   0  0  0  0  0  2  0  0  0  0  0  0
   10.6450    9.1560   24.3260 C   0  0  0  0  0  3  0  0  0  0  0  0
   11.0670    7.1860   25.2610 C   0  0  0  0  0  3  0  0  0  0  0  0
   11.8120    5.2330   26.7260 N   0  0  0  0  0  2  0  0  0  0  0  0
    9.9860    2.0620   27.2340 N   0  0  0  0  0  2  0  0  0  0  0  0
    4.9900    3.4980   24.8750 N   0  0  0  0  0  2  0  0  0  0  0  0
   10.3440    7.8150   24.2780 N   0  0  0  0  0  2  0  0  0  0  0  0
   10.4240    4.9430   24.9220 O   0  0  0  0  0  1  0  0  0  0  0  0
   13.0440   10.9820   26.6960 O   0  0  0  0  0  0  0  0  0  0  0  0
    9.7920    4.1210   28.2120 O   0  0  0  0  0  1  0  0  0  0  0  0
    6.3240    1.7460   23.7890 O   0  0  0  0  0  1  0  0  0  0  0  0
    7.6060   -0.1250   28.9230 O   0  0  0  0  0  1  0  0  0  0  0  0
   10.1050   -0.3290   30.4790 O   0  0  0  0  0  1  0  0  0  0  0  0
  1 30  1  0
  2  3  1  0
  2 24  1  0
  3 15  1  0
  3 23  1  0
  4 24  1  0
  4 25  1  0
  4 29  1  0
  5  6  1  0
  5 10  1  0
  5 25  1  0
  6  7  1  0
  7  8  1  0
  7  9  1  0
 10 26  1  0
 10 31  1  0
 11 12  1  0
 11 18  1  0
 11 26  1  0
 12 13  1  0
 13 14  1  0
 13 17  1  0
 14 16  1  0
 15 20  1  0
 15 30  1  0
 16 27  1  0
 17 27  1  0
 17 32  1  0
 18 19  1  0
 18 33  1  0
 19 34  1  0
 20 21  1  0
 21 22  1  0
 22 23  1  0
 23 28  1  0
 24 28  1  0
M  END
$$$$
