8dzc_A_U76_401
     RDKit          3D

 44 47  0  0  0  0  0  0  0  0999 V2000
  -19.2320    2.0920   14.0030 C   0  0  0  0  0  3  0  0  0  0  0  0
  -19.9150    3.4770   13.6860 C   0  0  0  0  0  2  0  0  0  0  0  0
  -21.3680    3.4290   13.6980 C   0  0  0  0  0  2  0  0  0  0  0  0
  -21.9320    2.8140   14.9110 C   0  0  0  0  0  3  0  0  0  0  0  0
  -21.5770    1.3730   15.0210 C   0  0  0  0  0  2  0  0  0  0  0  0
  -19.4650   -0.2680   14.9720 C   0  0  0  0  0  3  0  0  0  0  0  0
  -19.5780   -0.9740   13.5890 C   0  0  0  0  0  3  0  0  0  0  0  0
  -18.3350   -1.9280   11.5450 C   0  0  0  0  0  3  0  0  0  0  0  0
  -17.2550   -1.1800   10.6970 C   0  0  0  0  0  2  0  0  0  0  0  0
  -17.5910    0.3270   10.5010 C   0  0  0  0  0  3  0  0  0  0  0  0
  -19.0200    0.4200    9.6420 C   0  0  0  0  0  2  0  0  0  0  0  0
  -18.9000    1.3970    8.7950 C   0  0  0  0  0  2  0  0  0  0  0  0
  -16.6620    0.8920    9.7810 C   0  0  0  0  0  3  0  0  0  0  0  0
  -18.0900   -3.4450   11.8000 C   0  0  0  0  0  3  0  0  0  0  0  0
  -18.5390   -4.2660   10.5800 C   0  0  0  0  0  3  0  0  0  0  0  0
  -20.3680   -5.8450    9.6250 C   0  0  0  0  0  3  0  0  0  0  0  0
  -21.2990   -5.0130    8.7120 C   0  0  0  0  0  2  0  0  0  0  0  0
  -21.8890   -6.0560    9.6640 C   0  0  0  0  0  2  0  0  0  0  0  0
  -20.1870   -1.1380   16.0350 C   0  0  0  0  0  2  0  0  0  0  0  0
  -20.0560   -0.5520   17.4630 C   0  0  0  0  0  3  0  0  0  0  0  0
  -18.5810   -0.3240   17.7790 C   0  0  0  0  0  1  0  0  0  0  0  0
  -20.7310   -1.4970   18.4960 C   0  0  0  0  0  1  0  0  0  0  0  0
  -21.8970    4.9550   16.4370 C   0  0  0  0  0  3  0  0  0  0  0  0
  -21.5480    7.1220   17.5690 C   0  0  0  0  0  2  0  0  0  0  0  0
  -21.0850    8.0300   16.3930 C   0  0  0  0  0  3  0  0  0  0  0  0
  -21.7130    9.2580   16.1730 C   0  0  0  0  0  2  0  0  0  0  0  0
  -21.3130   10.0780   15.1110 C   0  0  0  0  0  3  0  0  0  0  0  0
  -20.2760    9.6480   14.2740 C   0  0  0  0  0  2  0  0  0  0  0  0
  -19.6270    8.4170   14.5000 C   0  0  0  0  0  3  0  0  0  0  0  0
  -20.0440    7.6170   15.5660 C   0  0  0  0  0  2  0  0  0  0  0  0
  -21.9160   11.2970   14.8830 F   0  0  0  0  0  0  0  0  0  0  0  0
  -18.6030    7.9630   13.6930 F   0  0  0  0  0  0  0  0  0  0  0  0
  -20.0840    1.0310   14.7190 N   0  0  0  0  0  0  0  0  0  0  0  0
  -18.3340   -1.2720   12.8750 N   0  0  0  0  0  2  0  0  0  0  0  0
  -17.3660    1.6140    8.5770 N   0  0  0  0  0  2  0  0  0  0  0  0
  -19.7720   -5.0590   10.7320 N   0  0  0  0  0  2  0  0  0  0  0  0
  -21.4550    3.5510   16.1280 N   0  0  0  0  0  2  0  0  0  0  0  0
  -18.1000    1.8740   13.7230 O   0  0  0  0  0  1  0  0  0  0  0  0
  -15.5070    0.8620    9.9670 O   0  0  0  0  0  1  0  0  0  0  0  0
  -18.7990   -3.8690   12.9390 O   0  0  0  0  0  1  0  0  0  0  0  0
  -17.9230   -4.1930    9.5670 O   0  0  0  0  0  1  0  0  0  0  0  0
  -20.6390   -1.2520   13.1370 O   0  0  0  0  0  1  0  0  0  0  0  0
  -21.1520    5.7440   17.3870 O   0  0  0  0  0  0  0  0  0  0  0  0
  -22.8640    5.4210   15.8930 O   0  0  0  0  0  1  0  0  0  0  0  0
  1  2  1  0
  1 33  1  0
  1 38  1  0
  2  3  1  0
  3  4  1  0
  4  5  1  0
  4 37  1  0
  5 33  1  0
  6  7  1  0
  6 19  1  0
  6 33  1  0
  7 34  1  0
  7 42  1  0
  8  9  1  0
  8 14  1  0
  8 34  1  0
  9 10  1  0
 10 11  1  0
 10 13  1  0
 11 12  1  0
 12 35  1  0
 13 35  1  0
 13 39  1  0
 14 15  1  0
 14 40  1  0
 15 36  1  0
 15 41  1  0
 16 17  1  0
 16 18  1  0
 16 36  1  0
 17 18  1  0
 19 20  1  0
 20 21  1  0
 20 22  1  0
 23 37  1  0
 23 43  1  0
 23 44  1  0
 24 25  1  0
 24 43  1  0
 25 26  1  0
 25 30  1  0
 26 27  1  0
 27 28  1  0
 27 31  1  0
 28 29  1  0
 29 30  1  0
 29 32  1  0
M  END
$$$$
