8e4w_B_V2M_401
     RDKit          3D

 34 36  0  0  0  0  0  0  0  0999 V2000
  -23.2440  -24.0800   -4.0370 C   0  0  0  0  0  1  0  0  0  0  0  0
  -21.9370  -22.7190   -0.4510 C   0  0  0  0  0  2  0  0  0  0  0  0
  -22.1270  -21.9100   -1.5320 C   0  0  0  0  0  3  0  0  0  0  0  0
  -20.5840  -22.6360    1.7620 C   0  0  0  0  0  3  0  0  0  0  0  0
  -20.5800  -24.5160    3.4650 C   0  0  0  0  0  3  0  0  0  0  0  0
  -21.2550  -25.8690    3.6830 C   0  0  0  0  0  2  0  0  0  0  0  0
  -22.7240  -25.6880    4.0560 C   0  0  0  0  0  3  0  0  0  0  0  0
  -23.4150  -27.0490    3.9960 C   0  0  0  0  0  1  0  0  0  0  0  0
  -22.8240  -25.1430    5.4780 C   0  0  0  0  0  1  0  0  0  0  0  0
  -19.0680  -24.7510    3.4630 C   0  0  0  0  0  3  0  0  0  0  0  0
  -16.8540  -24.6950    4.6580 C   0  0  0  0  0  3  0  0  0  0  0  0
  -16.1010  -23.3880    4.8950 C   0  0  0  0  0  2  0  0  0  0  0  0
  -16.4310  -22.3170    3.6780 C   0  0  0  0  0  3  0  0  0  0  0  0
  -16.0980  -22.7640    2.6000 C   0  0  0  0  0  2  0  0  0  0  0  0
  -22.9950  -22.0900   -2.8350 C   0  0  0  0  0  3  0  0  0  0  0  0
  -14.5510  -22.1280    2.2260 C   0  0  0  0  0  2  0  0  0  0  0  0
  -15.5690  -20.9610    3.8790 C   0  0  0  0  0  3  0  0  0  0  0  0
  -16.5260  -25.6850    5.7740 C   0  0  0  0  0  3  0  0  0  0  0  0
  -17.3120  -26.9750    5.5440 C   0  0  0  0  0  2  0  0  0  0  0  0
  -23.0170  -21.0090   -3.8820 C   0  0  0  0  0  2  0  0  0  0  0  0
  -22.2140  -19.7770   -3.6750 C   0  0  0  0  0  2  0  0  0  0  0  0
  -21.3910  -19.6150   -2.4230 C   0  0  0  0  0  2  0  0  0  0  0  0
  -21.3780  -20.7550   -1.3360 C   0  0  0  0  0  3  0  0  0  0  0  0
  -21.0680  -22.0810    0.4240 C   0  0  0  0  0  3  0  0  0  0  0  0
  -21.0190  -23.9520    2.2000 N   0  0  0  0  0  2  0  0  0  0  0  0
  -18.2870  -24.4610    4.6540 N   0  0  0  0  0  2  0  0  0  0  0  0
  -14.4090  -21.0230    2.8510 N   0  0  0  0  0  2  0  0  0  0  0  0
  -20.7300  -20.8690   -0.1280 N   0  0  0  0  0  2  0  0  0  0  0  0
  -19.8450  -21.9950    2.4290 O   0  0  0  0  0  1  0  0  0  0  0  0
  -23.7440  -23.2560   -3.0230 O   0  0  0  0  0  0  0  0  0  0  0  0
  -18.5340  -25.1790    2.4960 O   0  0  0  0  0  1  0  0  0  0  0  0
  -15.7880  -20.0930    4.6540 O   0  0  0  0  0  1  0  0  0  0  0  0
  -15.1530  -25.9590    5.7720 O   0  0  0  0  0  1  0  0  0  0  0  0
  -17.0470  -27.8870    6.5740 O   0  0  0  0  0  1  0  0  0  0  0  0
  1 30  1  0
  2  3  1  0
  2 24  1  0
  3 15  1  0
  3 23  1  0
  4 24  1  0
  4 25  1  0
  4 29  1  0
  5  6  1  0
  5 10  1  0
  5 25  1  0
  6  7  1  0
  7  8  1  0
  7  9  1  0
 10 26  1  0
 10 31  1  0
 11 12  1  0
 11 18  1  0
 11 26  1  0
 12 13  1  0
 13 14  1  0
 13 17  1  0
 14 16  1  0
 15 20  1  0
 15 30  1  0
 16 27  1  0
 17 27  1  0
 17 32  1  0
 18 19  1  0
 18 33  1  0
 19 34  1  0
 20 21  1  0
 21 22  1  0
 22 23  1  0
 23 28  1  0
 24 28  1  0
M  END
$$$$
