8ezz_A_X70_401
     RDKit          3D

 44 47  0  0  0  0  0  0  0  0999 V2000
  -19.0660   14.0220  -24.9380 C   0  0  0  0  0  3  0  0  0  0  0  0
  -19.9720   15.3720  -29.0080 C   0  0  0  0  0  3  0  0  0  0  0  0
  -20.5680   14.0730  -29.6060 C   0  0  0  0  0  0  0  0  0  0  0  0
  -21.4240   14.4760  -30.8150 C   0  0  0  0  0  1  0  0  0  0  0  0
  -21.4410   13.4000  -28.5460 C   0  0  0  0  0  1  0  0  0  0  0  0
  -19.4840   13.0900  -30.0550 C   0  0  0  0  0  1  0  0  0  0  0  0
  -19.4450   17.1890  -30.5060 C   0  0  0  0  0  3  0  0  0  0  0  0
  -18.4640   17.7270  -31.5510 C   0  0  0  0  0  0  0  0  0  0  0  0
  -18.0870   12.0450  -23.8930 C   0  0  0  0  0  3  0  0  0  0  0  0
  -17.8780   12.2110  -22.3740 C   0  0  0  0  0  3  0  0  0  0  0  0
  -18.3100   10.9310  -21.6740 C   0  0  0  0  0  3  0  0  0  0  0  0
  -18.9550   15.4770  -25.3450 C   0  0  0  0  0  3  0  0  0  0  0  0
  -20.3900   11.9280  -20.4530 C   0  0  0  0  0  2  0  0  0  0  0  0
  -21.2970   10.7320  -20.1180 C   0  0  0  0  0  0  0  0  0  0  0  0
  -20.0360    9.8540  -20.1370 C   0  0  0  0  0  2  0  0  0  0  0  0
  -17.1300   11.1370  -24.6710 C   0  0  0  0  0  2  0  0  0  0  0  0
  -17.5220   10.9770  -26.1490 C   0  0  0  0  0  3  0  0  0  0  0  0
  -18.8610   10.2670  -26.3960 C   0  0  0  0  0  2  0  0  0  0  0  0
  -18.9570    9.7900  -27.8290 C   0  0  0  0  0  2  0  0  0  0  0  0
  -17.8880    8.7430  -28.0350 C   0  0  0  0  0  2  0  0  0  0  0  0
  -16.3720   10.3310  -26.8750 C   0  0  0  0  0  3  0  0  0  0  0  0
  -19.6300   16.4250  -24.3620 C   0  0  0  0  0  3  0  0  0  0  0  0
  -20.7930   17.0760  -25.0730 C   0  0  0  0  0  3  0  0  0  0  0  0
  -19.6230   17.9110  -24.6440 C   0  0  0  0  0  0  0  0  0  0  0  0
  -18.7680   18.5110  -25.7380 C   0  0  0  0  0  1  0  0  0  0  0  0
  -19.8020   18.8100  -23.4270 C   0  0  0  0  0  1  0  0  0  0  0  0
  -20.8130   16.5840  -26.4980 C   0  0  0  0  0  2  0  0  0  0  0  0
  -19.1950   15.1390  -27.7220 C   0  0  0  0  0  3  0  0  0  0  0  0
  -17.2300   17.3720  -31.3740 F   0  0  0  0  0  0  0  0  0  0  0  0
  -18.7580   17.2970  -32.7800 F   0  0  0  0  0  0  0  0  0  0  0  0
  -18.3510   19.0300  -31.4230 F   0  0  0  0  0  0  0  0  0  0  0  0
  -21.9090   10.7680  -18.9110 F   0  0  0  0  0  0  0  0  0  0  0  0
  -22.2330   10.4190  -21.0640 F   0  0  0  0  0  0  0  0  0  0  0  0
  -19.6420   15.7020  -26.6070 N   0  0  0  0  0  0  0  0  0  0  0  0
  -19.0860   16.0610  -29.9330 N   0  0  0  0  0  2  0  0  0  0  0  0
  -18.0060   13.4100  -24.4090 N   0  0  0  0  0  2  0  0  0  0  0  0
  -19.3840   10.9390  -20.8990 N   0  0  0  0  0  0  0  0  0  0  0  0
  -16.5880    9.2870  -27.6670 N   0  0  0  0  0  2  0  0  0  0  0  0
  -20.1010   13.4210  -25.1470 O   0  0  0  0  0  1  0  0  0  0  0  0
  -20.4640   17.8080  -30.2860 O   0  0  0  0  0  1  0  0  0  0  0  0
  -18.2070   14.4590  -27.7300 O   0  0  0  0  0  1  0  0  0  0  0  0
  -18.7100   13.2750  -21.9130 O   0  0  0  0  0  1  0  0  0  0  0  0
  -17.7070    9.8980  -21.8690 O   0  0  0  0  0  1  0  0  0  0  0  0
  -15.2370   10.7880  -26.7050 O   0  0  0  0  0  1  0  0  0  0  0  0
  1 12  1  0
  1 36  1  0
  1 39  1  0
  2  3  1  0
  2 28  1  0
  2 35  1  0
  3  4  1  0
  3  5  1  0
  3  6  1  0
  7  8  1  0
  7 35  1  0
  7 40  1  0
  8 29  1  0
  8 30  1  0
  8 31  1  0
  9 10  1  0
  9 16  1  0
  9 36  1  0
 10 11  1  0
 10 42  1  0
 11 37  1  0
 11 43  1  0
 12 22  1  0
 12 34  1  0
 13 14  1  0
 13 37  1  0
 14 15  1  0
 14 32  1  0
 14 33  1  0
 15 37  1  0
 16 17  1  0
 17 18  1  0
 17 21  1  0
 18 19  1  0
 19 20  1  0
 20 38  1  0
 21 38  1  0
 21 44  1  0
 22 23  1  0
 22 24  1  0
 23 24  1  0
 23 27  1  0
 24 25  1  0
 24 26  1  0
 27 34  1  0
 28 34  1  0
 28 41  1  0
M  END
$$$$
