8f02_A_X6T_401
     RDKit          3D

 44 47  0  0  0  0  0  0  0  0999 V2000
  -19.2860   13.9940  -25.1240 C   0  0  0  0  0  3  0  0  0  0  0  0
  -20.0650   15.3790  -29.0780 C   0  0  0  0  0  3  0  0  0  0  0  0
  -20.6990   14.0800  -29.6490 C   0  0  0  0  0  0  0  0  0  0  0  0
  -19.6730   13.0430  -30.1210 C   0  0  0  0  0  1  0  0  0  0  0  0
  -21.5800   14.5150  -30.8290 C   0  0  0  0  0  1  0  0  0  0  0  0
  -21.5810   13.4260  -28.5890 C   0  0  0  0  0  1  0  0  0  0  0  0
  -19.4230   17.2280  -30.5350 C   0  0  0  0  0  3  0  0  0  0  0  0
  -18.3870   17.7020  -31.5430 C   0  0  0  0  0  0  0  0  0  0  0  0
  -18.1780   12.0800  -24.0700 C   0  0  0  0  0  3  0  0  0  0  0  0
  -17.9310   12.2680  -22.5540 C   0  0  0  0  0  3  0  0  0  0  0  0
  -18.4710   11.0040  -21.9160 C   0  0  0  0  0  3  0  0  0  0  0  0
  -19.0820   15.4690  -25.4340 C   0  0  0  0  0  3  0  0  0  0  0  0
  -20.8150   11.9610  -21.3920 C   0  0  0  0  0  2  0  0  0  0  0  0
  -21.7770   10.7890  -21.0510 C   0  0  0  0  0  0  0  0  0  0  0  0
  -22.8040   10.4910  -22.1380 C   0  0  0  0  0  1  0  0  0  0  0  0
  -22.4400   10.8880  -19.6840 C   0  0  0  0  0  1  0  0  0  0  0  0
  -20.5600    9.8370  -21.0110 C   0  0  0  0  0  2  0  0  0  0  0  0
  -17.1750   11.2220  -24.8540 C   0  0  0  0  0  2  0  0  0  0  0  0
  -17.5550   11.0510  -26.3330 C   0  0  0  0  0  3  0  0  0  0  0  0
  -18.9380   10.4100  -26.5440 C   0  0  0  0  0  2  0  0  0  0  0  0
  -19.1400    9.9410  -27.9700 C   0  0  0  0  0  2  0  0  0  0  0  0
  -18.0840    8.9080  -28.2950 C   0  0  0  0  0  2  0  0  0  0  0  0
  -19.7470   16.4170  -24.4400 C   0  0  0  0  0  3  0  0  0  0  0  0
  -16.4410   10.3300  -27.0500 C   0  0  0  0  0  3  0  0  0  0  0  0
  -20.8400   17.1660  -25.1540 C   0  0  0  0  0  3  0  0  0  0  0  0
  -19.6080   17.8990  -24.6780 C   0  0  0  0  0  0  0  0  0  0  0  0
  -18.6730   18.4590  -25.7260 C   0  0  0  0  0  1  0  0  0  0  0  0
  -19.7170   18.7830  -23.4520 C   0  0  0  0  0  1  0  0  0  0  0  0
  -20.9190   16.6250  -26.5600 C   0  0  0  0  0  2  0  0  0  0  0  0
  -19.2420   15.2140  -27.8010 C   0  0  0  0  0  3  0  0  0  0  0  0
  -18.4330   16.9990  -32.6720 F   0  0  0  0  0  0  0  0  0  0  0  0
  -17.1720   17.5120  -31.0690 F   0  0  0  0  0  0  0  0  0  0  0  0
  -18.5210   18.9910  -31.7500 F   0  0  0  0  0  0  0  0  0  0  0  0
  -19.7390   15.7560  -26.6900 N   0  0  0  0  0  0  0  0  0  0  0  0
  -19.1720   16.0350  -30.0230 N   0  0  0  0  0  2  0  0  0  0  0  0
  -18.1950   13.4270  -24.6190 N   0  0  0  0  0  2  0  0  0  0  0  0
  -19.7310   10.9620  -21.4870 N   0  0  0  0  0  0  0  0  0  0  0  0
  -16.7490    9.3820  -27.9340 N   0  0  0  0  0  2  0  0  0  0  0  0
  -20.3330   13.3860  -25.3490 O   0  0  0  0  0  1  0  0  0  0  0  0
  -20.3600   17.9520  -30.2860 O   0  0  0  0  0  1  0  0  0  0  0  0
  -18.1640   14.6400  -27.8110 O   0  0  0  0  0  1  0  0  0  0  0  0
  -17.7520   10.0260  -21.9020 O   0  0  0  0  0  1  0  0  0  0  0  0
  -18.6340   13.4100  -22.0700 O   0  0  0  0  0  1  0  0  0  0  0  0
  -15.2570   10.6290  -26.8020 O   0  0  0  0  0  1  0  0  0  0  0  0
  1 12  1  0
  1 36  1  0
  1 39  1  0
  2  3  1  0
  2 30  1  0
  2 35  1  0
  3  4  1  0
  3  5  1  0
  3  6  1  0
  7  8  1  0
  7 35  1  0
  7 40  1  0
  8 31  1  0
  8 32  1  0
  8 33  1  0
  9 10  1  0
  9 18  1  0
  9 36  1  0
 10 11  1  0
 10 43  1  0
 11 37  1  0
 11 42  1  0
 12 23  1  0
 12 34  1  0
 13 14  1  0
 13 37  1  0
 14 15  1  0
 14 16  1  0
 14 17  1  0
 17 37  1  0
 18 19  1  0
 19 20  1  0
 19 24  1  0
 20 21  1  0
 21 22  1  0
 22 38  1  0
 23 25  1  0
 23 26  1  0
 24 38  1  0
 24 44  1  0
 25 26  1  0
 25 29  1  0
 26 27  1  0
 26 28  1  0
 29 34  1  0
 30 34  1  0
 30 41  1  0
M  END
$$$$
