8f2c_A_X9Z_401
     RDKit          3D

 41 44  0  0  0  0  0  0  0  0999 V2000
  -19.0080   14.0460  -25.4950 C   0  0  0  0  0  3  0  0  0  0  0  0
  -19.8600   15.4820  -29.4860 C   0  0  0  0  0  3  0  0  0  0  0  0
  -20.4750   14.2120  -30.1210 C   0  0  0  0  0  0  0  0  0  0  0  0
  -21.4410   13.6420  -29.0830 C   0  0  0  0  0  1  0  0  0  0  0  0
  -19.4490   13.1500  -30.5420 C   0  0  0  0  0  1  0  0  0  0  0  0
  -21.2710   14.6540  -31.3560 C   0  0  0  0  0  1  0  0  0  0  0  0
  -19.4020   17.3620  -30.9600 C   0  0  0  0  0  3  0  0  0  0  0  0
  -18.4270   17.9780  -31.9650 C   0  0  0  0  0  0  0  0  0  0  0  0
  -18.0750   12.1280  -24.2540 C   0  0  0  0  0  3  0  0  0  0  0  0
  -17.9170   12.4310  -22.7440 C   0  0  0  0  0  3  0  0  0  0  0  0
  -18.3870   11.2260  -21.8910 C   0  0  0  0  0  3  0  0  0  0  0  0
  -18.8050   15.4970  -25.8510 C   0  0  0  0  0  3  0  0  0  0  0  0
  -19.9840   10.3120  -20.1490 C   0  0  0  0  0  2  0  0  0  0  0  0
  -21.3030   11.0900  -20.2410 C   0  0  0  0  0  2  0  0  0  0  0  0
  -20.4790   12.2760  -20.7680 C   0  0  0  0  0  2  0  0  0  0  0  0
  -17.1010   11.0930  -24.8320 C   0  0  0  0  0  2  0  0  0  0  0  0
  -18.7220   10.3030  -26.6650 C   0  0  0  0  0  2  0  0  0  0  0  0
  -18.4490    9.5550  -27.9500 C   0  0  0  0  0  2  0  0  0  0  0  0
  -17.0900    9.9870  -28.3890 C   0  0  0  0  0  2  0  0  0  0  0  0
  -16.4740   10.6770  -27.1870 C   0  0  0  0  0  3  0  0  0  0  0  0
  -19.4600   16.4220  -24.8390 C   0  0  0  0  0  3  0  0  0  0  0  0
  -20.6060   17.1210  -25.5170 C   0  0  0  0  0  3  0  0  0  0  0  0
  -19.4200   17.9130  -25.0300 C   0  0  0  0  0  0  0  0  0  0  0  0
  -18.5750   18.5750  -26.0960 C   0  0  0  0  0  1  0  0  0  0  0  0
  -19.5910   18.7420  -23.7690 C   0  0  0  0  0  1  0  0  0  0  0  0
  -20.6540   16.6600  -26.9520 C   0  0  0  0  0  2  0  0  0  0  0  0
  -19.0340   15.2290  -28.2290 C   0  0  0  0  0  3  0  0  0  0  0  0
  -18.9060   18.0380  -33.2220 F   0  0  0  0  0  0  0  0  0  0  0  0
  -18.0370   19.1580  -31.5000 F   0  0  0  0  0  0  0  0  0  0  0  0
  -17.3090   17.2900  -32.0210 F   0  0  0  0  0  0  0  0  0  0  0  0
  -19.4960   15.7620  -27.0970 N   0  0  0  0  0  0  0  0  0  0  0  0
  -19.0060   16.2260  -30.4080 N   0  0  0  0  0  2  0  0  0  0  0  0
  -17.9600   13.4090  -24.9680 N   0  0  0  0  0  2  0  0  0  0  0  0
  -19.4250   11.3080  -21.0630 N   0  0  0  0  0  0  0  0  0  0  0  0
  -17.3980   10.7290  -26.2170 N   0  0  0  0  0  0  0  0  0  0  0  0
  -20.1100   13.5460  -25.6900 O   0  0  0  0  0  1  0  0  0  0  0  0
  -20.4420   17.9460  -30.7290 O   0  0  0  0  0  1  0  0  0  0  0  0
  -17.9760   14.6250  -28.2790 O   0  0  0  0  0  1  0  0  0  0  0  0
  -18.7930   13.5210  -22.4410 O   0  0  0  0  0  1  0  0  0  0  0  0
  -17.8270   10.1550  -22.0240 O   0  0  0  0  0  1  0  0  0  0  0  0
  -15.3260   11.1270  -27.1070 O   0  0  0  0  0  1  0  0  0  0  0  0
  1 12  1  0
  1 33  1  0
  1 36  1  0
  2  3  1  0
  2 27  1  0
  2 32  1  0
  3  4  1  0
  3  5  1  0
  3  6  1  0
  7  8  1  0
  7 32  1  0
  7 37  1  0
  8 28  1  0
  8 29  1  0
  8 30  1  0
  9 10  1  0
  9 16  1  0
  9 33  1  0
 10 11  1  0
 10 39  1  0
 11 34  1  0
 11 40  1  0
 12 21  1  0
 12 31  1  0
 13 14  1  0
 13 34  1  0
 14 15  1  0
 15 34  1  0
 16 35  1  0
 17 18  1  0
 17 35  1  0
 18 19  1  0
 19 20  1  0
 20 35  1  0
 20 41  1  0
 21 22  1  0
 21 23  1  0
 22 23  1  0
 22 26  1  0
 23 24  1  0
 23 25  1  0
 26 31  1  0
 27 31  1  0
 27 38  1  0
M  END
$$$$
