8f2d_A_XA8_401
     RDKit          3D

 42 45  0  0  0  0  0  0  0  0999 V2000
  -18.9330   14.0390  -25.9080 C   0  0  0  0  0  3  0  0  0  0  0  0
  -19.8470   15.4390  -29.9440 C   0  0  0  0  0  3  0  0  0  0  0  0
  -20.4320   14.1090  -30.4820 C   0  0  0  0  0  0  0  0  0  0  0  0
  -21.2290   13.4660  -29.3400 C   0  0  0  0  0  1  0  0  0  0  0  0
  -19.3660   13.1220  -30.9810 C   0  0  0  0  0  1  0  0  0  0  0  0
  -21.3800   14.4590  -31.6390 C   0  0  0  0  0  1  0  0  0  0  0  0
  -19.4110   17.3330  -31.4080 C   0  0  0  0  0  3  0  0  0  0  0  0
  -18.3780   17.9760  -32.3240 C   0  0  0  0  0  0  0  0  0  0  0  0
  -18.0020   12.2030  -24.5900 C   0  0  0  0  0  3  0  0  0  0  0  0
  -17.9170   12.5940  -23.0980 C   0  0  0  0  0  3  0  0  0  0  0  0
  -18.2210   11.3810  -22.2230 C   0  0  0  0  0  3  0  0  0  0  0  0
  -18.7500   15.4910  -26.3260 C   0  0  0  0  0  3  0  0  0  0  0  0
  -20.2980   12.4210  -21.1000 C   0  0  0  0  0  2  0  0  0  0  0  0
  -20.7730   11.5010  -19.9650 C   0  0  0  0  0  2  0  0  0  0  0  0
  -19.7520   10.4430  -20.4330 C   0  0  0  0  0  2  0  0  0  0  0  0
  -16.9780   11.1660  -25.0740 C   0  0  0  0  0  2  0  0  0  0  0  0
  -18.5620    9.8980  -26.5800 C   0  0  0  0  0  2  0  0  0  0  0  0
  -19.0590   10.0460  -27.9840 C   0  0  0  0  0  2  0  0  0  0  0  0
  -18.0920    9.5400  -28.9190 C   0  0  0  0  0  2  0  0  0  0  0  0
  -16.7430   10.2030  -28.7510 C   0  0  0  0  0  2  0  0  0  0  0  0
  -16.4400   10.8620  -27.4240 C   0  0  0  0  0  3  0  0  0  0  0  0
  -19.4110   16.4320  -25.3260 C   0  0  0  0  0  3  0  0  0  0  0  0
  -20.5870   17.0850  -25.9950 C   0  0  0  0  0  3  0  0  0  0  0  0
  -19.4050   17.9210  -25.5710 C   0  0  0  0  0  0  0  0  0  0  0  0
  -19.5080   18.8120  -24.3430 C   0  0  0  0  0  1  0  0  0  0  0  0
  -18.6330   18.5600  -26.7010 C   0  0  0  0  0  1  0  0  0  0  0  0
  -20.6280   16.6330  -27.4320 C   0  0  0  0  0  2  0  0  0  0  0  0
  -18.9640   15.2760  -28.7130 C   0  0  0  0  0  3  0  0  0  0  0  0
  -17.6000   18.8580  -31.7090 F   0  0  0  0  0  0  0  0  0  0  0  0
  -18.9950   18.3710  -33.4360 F   0  0  0  0  0  0  0  0  0  0  0  0
  -17.4910   17.1050  -32.7230 F   0  0  0  0  0  0  0  0  0  0  0  0
  -19.4250   15.7870  -27.5770 N   0  0  0  0  0  0  0  0  0  0  0  0
  -19.0480   16.1600  -30.9220 N   0  0  0  0  0  2  0  0  0  0  0  0
  -17.8790   13.4520  -25.3370 N   0  0  0  0  0  2  0  0  0  0  0  0
  -19.2670   11.4220  -21.4080 N   0  0  0  0  0  0  0  0  0  0  0  0
  -17.2920   10.6540  -26.4170 N   0  0  0  0  0  0  0  0  0  0  0  0
  -19.9830   13.4280  -26.0730 O   0  0  0  0  0  1  0  0  0  0  0  0
  -20.4560   17.9170  -31.2050 O   0  0  0  0  0  1  0  0  0  0  0  0
  -17.9450   14.6180  -28.7440 O   0  0  0  0  0  1  0  0  0  0  0  0
  -18.9110   13.5860  -22.8040 O   0  0  0  0  0  1  0  0  0  0  0  0
  -17.4890   10.4180  -22.2650 O   0  0  0  0  0  1  0  0  0  0  0  0
  -15.4660   11.6050  -27.2830 O   0  0  0  0  0  1  0  0  0  0  0  0
  1 12  1  0
  1 34  1  0
  1 37  1  0
  2  3  1  0
  2 28  1  0
  2 33  1  0
  3  4  1  0
  3  5  1  0
  3  6  1  0
  7  8  1  0
  7 33  1  0
  7 38  1  0
  8 29  1  0
  8 30  1  0
  8 31  1  0
  9 10  1  0
  9 16  1  0
  9 34  1  0
 10 11  1  0
 10 40  1  0
 11 35  1  0
 11 41  1  0
 12 22  1  0
 12 32  1  0
 13 14  1  0
 13 35  1  0
 14 15  1  0
 15 35  1  0
 16 36  1  0
 17 18  1  0
 17 36  1  0
 18 19  1  0
 19 20  1  0
 20 21  1  0
 21 36  1  0
 21 42  1  0
 22 23  1  0
 22 24  1  0
 23 24  1  0
 23 27  1  0
 24 25  1  0
 24 26  1  0
 27 32  1  0
 28 32  1  0
 28 39  1  0
M  END
$$$$
