8ftl_A_5ZF_401
     RDKit          3D

 35 38  0  0  0  0  0  0  0  0999 V2000
   13.5740    2.1970   38.6330 C   0  0  0  0  0  3  0  0  0  0  0  0
   14.4290    1.4450   40.8490 C   0  0  0  0  0  3  0  0  0  0  0  0
   13.6400    1.4230   41.9850 C   0  0  0  0  0  2  0  0  0  0  0  0
   14.1840    1.7280   43.2170 C   0  0  0  0  0  2  0  0  0  0  0  0
   15.5160    2.0740   43.3080 C   0  0  0  0  0  3  0  0  0  0  0  0
   16.1490    2.4260   44.6450 C   0  0  0  0  0  3  0  0  0  0  0  0
   17.2400    3.2690   44.6770 C   0  0  0  0  0  2  0  0  0  0  0  0
   17.8190    3.5920   45.8970 C   0  0  0  0  0  2  0  0  0  0  0  0
   17.3080    3.0720   47.0750 C   0  0  0  0  0  2  0  0  0  0  0  0
   16.2190    2.2300   47.0310 C   0  0  0  0  0  2  0  0  0  0  0  0
   15.6460    1.9170   45.8200 C   0  0  0  0  0  2  0  0  0  0  0  0
   16.2990    2.1040   42.1770 C   0  0  0  0  0  2  0  0  0  0  0  0
   15.7580    1.7910   40.9500 C   0  0  0  0  0  2  0  0  0  0  0  0
   13.8720   -0.2410   39.0530 C   0  0  0  0  0  3  0  0  0  0  0  0
   12.6680   -0.6050   38.2030 C   0  0  0  0  0  3  0  0  0  0  0  0
   11.3900   -0.2170   38.5450 C   0  0  0  0  0  2  0  0  0  0  0  0
   10.5700   -1.3400   36.6630 C   0  0  0  0  0  2  0  0  0  0  0  0
   11.8460   -1.7340   36.3270 C   0  0  0  0  0  2  0  0  0  0  0  0
   12.8770   -1.3640   37.1070 C   0  0  0  0  0  2  0  0  0  0  0  0
   13.9950   -1.2740   40.1560 C   0  0  0  0  0  3  0  0  0  0  0  0
   14.9510   -2.9850   41.4100 C   0  0  0  0  0  3  0  0  0  0  0  0
   15.6430   -4.3140   41.1570 C   0  0  0  0  0  1  0  0  0  0  0  0
   15.5360   -2.3220   42.6480 C   0  0  0  0  0  3  0  0  0  0  0  0
   14.8760   -2.4190   43.8510 C   0  0  0  0  0  2  0  0  0  0  0  0
   15.3950   -1.8270   44.9780 C   0  0  0  0  0  2  0  0  0  0  0  0
   16.5820   -1.1320   44.8990 C   0  0  0  0  0  2  0  0  0  0  0  0
   17.2510   -1.0230   43.6930 C   0  0  0  0  0  2  0  0  0  0  0  0
   16.7220   -1.6230   42.5610 C   0  0  0  0  0  2  0  0  0  0  0  0
   12.5130    3.2310   38.9780 C   0  0  0  0  0  2  0  0  0  0  0  0
   12.6860    4.8420   38.2420 Cl  0  0  0  0  0  0  0  0  0  0  0  0
   13.9260    1.1250   39.5280 N   0  0  0  0  0  0  0  0  0  0  0  0
   10.3680   -0.5880   37.7580 N   0  0  0  0  0  2  0  0  0  0  0  0
   15.1520   -2.1240   40.2700 N   0  0  0  0  0  2  0  0  0  0  0  0
   14.2290    2.3060   37.4240 O   0  0  0  0  0  1  0  0  0  0  0  0
   12.9660   -1.4390   41.0750 O   0  0  0  0  0  1  0  0  0  0  0  0
  1 29  1  0
  1 31  1  0
  1 34  1  0
  2  3  1  0
  2 13  1  0
  2 31  1  0
  3  4  1  0
  4  5  1  0
  5  6  1  0
  5 12  1  0
  6  7  1  0
  6 11  1  0
  7  8  1  0
  8  9  1  0
  9 10  1  0
 10 11  1  0
 12 13  1  0
 14 15  1  0
 14 20  1  0
 14 31  1  0
 15 16  1  0
 15 19  1  0
 16 32  1  0
 17 18  1  0
 17 32  1  0
 18 19  1  0
 20 33  1  0
 20 35  1  0
 21 22  1  0
 21 23  1  0
 21 33  1  0
 23 24  1  0
 23 28  1  0
 24 25  1  0
 25 26  1  0
 26 27  1  0
 27 28  1  0
 29 30  1  0
M  END
$$$$
