8ftl_B_5ZF_401
     RDKit          3D

 35 38  0  0  0  0  0  0  0  0999 V2000
  -24.6540    2.1820   17.3140 C   0  0  0  0  0  3  0  0  0  0  0  0
  -25.4730    1.4240   15.1160 C   0  0  0  0  0  3  0  0  0  0  0  0
  -24.6750    1.4320   13.9870 C   0  0  0  0  0  2  0  0  0  0  0  0
  -25.2150    1.7560   12.7590 C   0  0  0  0  0  2  0  0  0  0  0  0
  -26.5490    2.0970   12.6700 C   0  0  0  0  0  3  0  0  0  0  0  0
  -27.1880    2.4680   11.3400 C   0  0  0  0  0  3  0  0  0  0  0  0
  -28.2750    3.3160   11.3250 C   0  0  0  0  0  2  0  0  0  0  0  0
  -28.8590    3.6520   10.1130 C   0  0  0  0  0  2  0  0  0  0  0  0
  -28.3610    3.1340    8.9250 C   0  0  0  0  0  2  0  0  0  0  0  0
  -27.2770    2.2840    8.9530 C   0  0  0  0  0  2  0  0  0  0  0  0
  -26.6980    1.9620   10.1580 C   0  0  0  0  0  2  0  0  0  0  0  0
  -27.3400    2.0950   13.7950 C   0  0  0  0  0  2  0  0  0  0  0  0
  -26.8040    1.7620   15.0170 C   0  0  0  0  0  2  0  0  0  0  0  0
  -24.9230   -0.2770   16.8990 C   0  0  0  0  0  3  0  0  0  0  0  0
  -23.7060   -0.6650   17.7180 C   0  0  0  0  0  3  0  0  0  0  0  0
  -22.4350   -0.2480   17.3810 C   0  0  0  0  0  2  0  0  0  0  0  0
  -21.5880   -1.4540   19.1970 C   0  0  0  0  0  2  0  0  0  0  0  0
  -22.8560   -1.8800   19.5240 C   0  0  0  0  0  2  0  0  0  0  0  0
  -23.8960   -1.4820   18.7730 C   0  0  0  0  0  2  0  0  0  0  0  0
  -25.0410   -1.3000   15.7850 C   0  0  0  0  0  3  0  0  0  0  0  0
  -25.9990   -3.0220   14.5360 C   0  0  0  0  0  3  0  0  0  0  0  0
  -26.7200   -4.3320   14.8040 C   0  0  0  0  0  1  0  0  0  0  0  0
  -26.5450   -2.3540   13.2830 C   0  0  0  0  0  3  0  0  0  0  0  0
  -25.8750   -2.4870   12.0900 C   0  0  0  0  0  2  0  0  0  0  0  0
  -26.3600   -1.8880   10.9500 C   0  0  0  0  0  2  0  0  0  0  0  0
  -27.5230   -1.1480   11.0080 C   0  0  0  0  0  2  0  0  0  0  0  0
  -28.1980   -1.0040   12.2050 C   0  0  0  0  0  2  0  0  0  0  0  0
  -27.7040   -1.6100   13.3460 C   0  0  0  0  0  2  0  0  0  0  0  0
  -23.6710    3.2870   16.8850 C   0  0  0  0  0  2  0  0  0  0  0  0
  -23.8060    4.8380   17.7440 Cl  0  0  0  0  0  0  0  0  0  0  0  0
  -24.9810    1.0920   16.4330 N   0  0  0  0  0  0  0  0  0  0  0  0
  -21.4030   -0.6470   18.1380 N   0  0  0  0  0  2  0  0  0  0  0  0
  -26.1980   -2.1490   15.6630 N   0  0  0  0  0  2  0  0  0  0  0  0
  -25.2380    2.2470   18.5600 O   0  0  0  0  0  1  0  0  0  0  0  0
  -24.0020   -1.4590   14.8760 O   0  0  0  0  0  1  0  0  0  0  0  0
  1 29  1  0
  1 31  1  0
  1 34  1  0
  2  3  1  0
  2 13  1  0
  2 31  1  0
  3  4  1  0
  4  5  1  0
  5  6  1  0
  5 12  1  0
  6  7  1  0
  6 11  1  0
  7  8  1  0
  8  9  1  0
  9 10  1  0
 10 11  1  0
 12 13  1  0
 14 15  1  0
 14 20  1  0
 14 31  1  0
 15 16  1  0
 15 19  1  0
 16 32  1  0
 17 18  1  0
 17 32  1  0
 18 19  1  0
 20 33  1  0
 20 35  1  0
 21 22  1  0
 21 23  1  0
 21 33  1  0
 23 24  1  0
 23 28  1  0
 24 25  1  0
 25 26  1  0
 26 27  1  0
 27 28  1  0
 29 30  1  0
M  END
$$$$
