8gqt_D_QUE_401
     RDKit          3D

 22 24  0  0  0  0  0  0  0  0999 V2000
    7.3260  -35.0910   25.3160 C   0  0  0  0  0  2  0  0  0  0  0  0
   10.6430  -31.3730   24.6640 C   0  0  0  0  0  3  0  0  0  0  0  0
   10.8610  -31.3890   25.9860 C   0  0  0  0  0  3  0  0  0  0  0  0
   11.6880  -30.2880   26.7280 C   0  0  0  0  0  3  0  0  0  0  0  0
   11.2780  -29.9540   28.0420 C   0  0  0  0  0  2  0  0  0  0  0  0
   11.9680  -28.9830   28.7860 C   0  0  0  0  0  2  0  0  0  0  0  0
   13.0840  -28.3320   28.2110 C   0  0  0  0  0  3  0  0  0  0  0  0
   13.4990  -28.6650   26.8970 C   0  0  0  0  0  3  0  0  0  0  0  0
   12.8110  -29.6390   26.1610 C   0  0  0  0  0  2  0  0  0  0  0  0
    8.0610  -34.2790   24.4540 C   0  0  0  0  0  3  0  0  0  0  0  0
    8.9280  -33.2880   24.8660 C   0  0  0  0  0  3  0  0  0  0  0  0
    9.0640  -33.1050   26.3040 C   0  0  0  0  0  3  0  0  0  0  0  0
    8.3630  -33.8720   27.1830 C   0  0  0  0  0  2  0  0  0  0  0  0
    7.5120  -34.8540   26.6980 C   0  0  0  0  0  3  0  0  0  0  0  0
    9.7540  -32.3720   24.0400 C   0  0  0  0  0  3  0  0  0  0  0  0
    9.9510  -32.0720   26.8850 O   0  0  0  0  0  0  0  0  0  0  0  0
    9.6870  -32.4570   22.8270 O   0  0  0  0  0  1  0  0  0  0  0  0
   14.6030  -28.0320   26.3140 O   0  0  0  0  0  1  0  0  0  0  0  0
   13.7840  -27.3310   28.9840 O   0  0  0  0  0  1  0  0  0  0  0  0
   11.2700  -30.3780   23.8150 O   0  0  0  0  0  1  0  0  0  0  0  0
    6.8360  -35.5990   27.6210 O   0  0  0  0  0  1  0  0  0  0  0  0
    7.8970  -34.4980   23.0610 O   0  0  0  0  0  1  0  0  0  0  0  0
  1 10  1  0
  1 14  1  0
  2  3  1  0
  2 15  1  0
  2 20  1  0
  3  4  1  0
  3 16  1  0
  4  5  1  0
  4  9  1  0
  5  6  1  0
  6  7  1  0
  7  8  1  0
  7 19  1  0
  8  9  1  0
  8 18  1  0
 10 11  1  0
 10 22  1  0
 11 12  1  0
 11 15  1  0
 12 13  1  0
 12 16  1  0
 13 14  1  0
 14 21  1  0
 15 17  1  0
M  END
$$$$
