8okm_A_84C_401
     RDKit          3D

 76 78  0  0  0  0  0  0  0  0999 V2000
   16.9260    5.3360  -26.0310 C   0  0  0  0  0  3  0  0  0  0  0  0
   23.5910    5.1010  -30.9270 C   0  0  0  0  0  0  0  0  0  0  0  0
   23.4070    4.2820  -32.2150 C   0  0  0  0  0  0  0  0  0  0  0  0
   22.8830    2.9410  -31.7750 C   0  0  0  0  0  0  0  0  0  0  0  0
   23.4270    2.7640  -30.3730 C   0  0  0  0  0  0  0  0  0  0  0  0
   23.2320    4.1630  -29.7640 C   0  0  0  0  0  0  0  0  0  0  0  0
   20.2090    6.2080  -30.1270 C   0  0  0  0  0  3  0  0  0  0  0  0
   19.9820    7.5580  -30.8020 C   0  0  0  0  0  0  0  0  0  0  0  0
   19.9370    7.4830  -33.2420 C   0  0  0  0  0  3  0  0  0  0  0  0
   19.5570    7.0190  -35.6570 C   0  0  0  0  0  0  0  0  0  0  0  0
   20.6060    5.9350  -35.7150 C   0  0  0  0  0  0  0  0  0  0  0  0
   17.5800    7.5240  -25.5690 C   0  0  0  0  0  0  0  0  0  0  0  0
   18.3240    6.6300  -36.4430 C   0  0  0  0  0  0  0  0  0  0  0  0
   20.1160    8.3380  -36.1400 C   0  0  0  0  0  0  0  0  0  0  0  0
   19.2020    8.5020  -29.8640 C   0  0  0  0  0  0  0  0  0  0  0  0
   19.9610    8.7680  -28.5710 C   0  0  0  0  0  0  0  0  0  0  0  0
   18.8460    9.8000  -30.5770 C   0  0  0  0  0  0  0  0  0  0  0  0
   21.2600    2.9210  -24.9940 C   0  0  0  0  0  3  0  0  0  0  0  0
   18.8150    6.6600  -25.4390 C   0  0  0  0  0  0  0  0  0  0  0  0
   18.4360    5.3700  -26.1410 C   0  0  0  0  0  0  0  0  0  0  0  0
   19.1070    4.1120  -25.5720 C   0  0  0  0  0  0  0  0  0  0  0  0
   20.6300    4.0560  -25.7890 C   0  0  0  0  0  0  0  0  0  0  0  0
   21.5940    4.7820  -27.9350 C   0  0  0  0  0  3  0  0  0  0  0  0
   21.7790    4.4740  -29.4260 C   0  0  0  0  0  0  0  0  0  0  0  0
   22.6350    6.2810  -30.7930 C   0  0  0  0  0  0  0  0  0  0  0  0
   15.6660    6.7140  -25.4910 H   0  0  0  0  0  0  0  0  0  0  0  0
   20.6300    3.1440  -27.6130 H   0  0  0  0  0  0  0  0  0  0  0  0
   21.2410    3.7080  -29.7440 H   0  0  0  0  0  0  0  0  0  0  0  0
   23.0210    6.9860  -30.2290 H   0  0  0  0  0  0  0  0  0  0  0  0
   22.4140    6.6590  -31.6720 H   0  0  0  0  0  0  0  0  0  0  0  0
   24.5340    5.3800  -30.8470 H   0  0  0  0  0  0  0  0  0  0  0  0
   22.7660    4.7220  -32.8110 H   0  0  0  0  0  0  0  0  0  0  0  0
   24.2640    4.1800  -32.6800 H   0  0  0  0  0  0  0  0  0  0  0  0
   23.2030    2.2280  -32.3680 H   0  0  0  0  0  0  0  0  0  0  0  0
   21.9020    2.9320  -31.7730 H   0  0  0  0  0  0  0  0  0  0  0  0
   24.3750    2.5130  -30.3870 H   0  0  0  0  0  0  0  0  0  0  0  0
   17.4650    8.1040  -24.7840 H   0  0  0  0  0  0  0  0  0  0  0  0
   22.9210    2.0880  -29.8760 H   0  0  0  0  0  0  0  0  0  0  0  0
   23.8330    4.3310  -28.9930 H   0  0  0  0  0  0  0  0  0  0  0  0
   20.8600    7.9790  -30.9910 H   0  0  0  0  0  0  0  0  0  0  0  0
   18.4550    7.0770  -32.0720 H   0  0  0  0  0  0  0  0  0  0  0  0
   21.1990    6.0990  -36.4680 H   0  0  0  0  0  0  0  0  0  0  0  0
   20.1750    5.0710  -35.8250 H   0  0  0  0  0  0  0  0  0  0  0  0
   21.1210    5.9380  -34.8910 H   0  0  0  0  0  0  0  0  0  0  0  0
   17.7610    7.4120  -36.5710 H   0  0  0  0  0  0  0  0  0  0  0  0
   17.8290    5.9510  -35.9550 H   0  0  0  0  0  0  0  0  0  0  0  0
   18.5900    6.2770  -37.3090 H   0  0  0  0  0  0  0  0  0  0  0  0
   17.6190    8.0860  -26.3740 H   0  0  0  0  0  0  0  0  0  0  0  0
   19.5000    9.0540  -35.9130 H   0  0  0  0  0  0  0  0  0  0  0  0
   20.2340    8.3060  -37.1040 H   0  0  0  0  0  0  0  0  0  0  0  0
   20.9740    8.5010  -35.7140 H   0  0  0  0  0  0  0  0  0  0  0  0
   18.3570    8.0560  -29.6100 H   0  0  0  0  0  0  0  0  0  0  0  0
   20.9160    8.7950  -28.7540 H   0  0  0  0  0  0  0  0  0  0  0  0
   19.7740    8.0570  -27.9330 H   0  0  0  0  0  0  0  0  0  0  0  0
   19.6780    9.6210  -28.1970 H   0  0  0  0  0  0  0  0  0  0  0  0
   18.2680    9.6070  -31.3350 H   0  0  0  0  0  0  0  0  0  0  0  0
   19.6600   10.2310  -30.8930 H   0  0  0  0  0  0  0  0  0  0  0  0
   18.3840   10.3940  -29.9600 H   0  0  0  0  0  0  0  0  0  0  0  0
   19.5840    7.0850  -25.8720 H   0  0  0  0  0  0  0  0  0  0  0  0
   22.2000    2.8200  -25.2550 H   0  0  0  0  0  0  0  0  0  0  0  0
   20.3720    3.3320  -23.4030 H   0  0  0  0  0  0  0  0  0  0  0  0
   19.0300    6.4990  -24.4970 H   0  0  0  0  0  0  0  0  0  0  0  0
   18.6490    5.4530  -27.1040 H   0  0  0  0  0  0  0  0  0  0  0  0
   18.7010    3.3210  -25.9890 H   0  0  0  0  0  0  0  0  0  0  0  0
   18.9250    4.0640  -24.6090 H   0  0  0  0  0  0  0  0  0  0  0  0
   21.0260    4.9070  -25.4780 H   0  0  0  0  0  0  0  0  0  0  0  0
   16.5060    6.5370  -25.6610 N   0  0  0  0  0  0  0  0  0  0  0  0
   20.9220    3.8890  -27.2120 N   0  0  0  0  0  0  0  0  0  0  0  0
   21.4480    5.6880  -30.1590 N   0  0  0  0  0  0  0  0  0  0  0  0
   19.2950    7.3240  -32.0660 N   0  0  0  0  0  0  0  0  0  0  0  0
   16.2140    4.3720  -26.3190 O   0  0  0  0  0  1  0  0  0  0  0  0
   22.0190    5.8340  -27.4580 O   0  0  0  0  0  1  0  0  0  0  0  0
   19.2980    5.6170  -29.5370 O   0  0  0  0  0  1  0  0  0  0  0  0
   21.0910    7.8420  -33.3500 O   0  0  0  0  0  1  0  0  0  0  0  0
   19.1020    7.1770  -34.2520 O   0  0  0  0  0  0  0  0  0  0  0  0
   21.1760    3.1570  -23.5990 O   0  0  0  0  0  0  0  0  0  0  0  0
  1 20  1  0
  1 67  1  0
  1 71  1  0
  2  3  1  0
  2  6  1  0
  2 25  1  0
  2 31  1  0
  3  4  1  0
  3 32  1  0
  3 33  1  0
  4  5  1  0
  4 34  1  0
  4 35  1  0
  5  6  1  0
  5 36  1  0
  5 38  1  0
  6 24  1  0
  6 39  1  0
  7  8  1  0
  7 69  1  0
  7 73  1  0
  8 15  1  0
  8 40  1  0
  8 70  1  0
  9 70  1  0
  9 74  1  0
  9 75  1  0
 10 11  1  0
 10 13  1  0
 10 14  1  0
 10 75  1  0
 11 42  1  0
 11 43  1  0
 11 44  1  0
 12 19  1  0
 12 37  1  0
 12 48  1  0
 12 67  1  0
 13 45  1  0
 13 46  1  0
 13 47  1  0
 14 49  1  0
 14 50  1  0
 14 51  1  0
 15 16  1  0
 15 17  1  0
 15 52  1  0
 16 53  1  0
 16 54  1  0
 16 55  1  0
 17 56  1  0
 17 57  1  0
 17 58  1  0
 18 22  1  0
 18 60  1  0
 18 76  1  0
 19 20  1  0
 19 59  1  0
 19 62  1  0
 20 21  1  0
 20 63  1  0
 21 22  1  0
 21 64  1  0
 21 65  1  0
 22 66  1  0
 22 68  1  0
 23 24  1  0
 23 68  1  0
 23 72  1  0
 24 28  1  0
 24 69  1  0
 25 29  1  0
 25 30  1  0
 25 69  1  0
 26 67  1  0
 27 68  1  0
 41 70  1  0
 61 76  1  0
M  END
$$$$
