8okn_B_83W_401
     RDKit          3D

 79 80  0  0  0  0  0  0  0  0999 V2000
  -15.3740  -12.3000   -3.5890 C   0  0  0  0  0  3  0  0  0  0  0  0
  -16.6440  -12.3320   -1.4070 C   0  0  0  0  0  0  0  0  0  0  0  0
  -18.0230  -11.8140   -1.0750 C   0  0  0  0  0  0  0  0  0  0  0  0
  -18.6580  -11.7060   -2.4430 C   0  0  0  0  0  0  0  0  0  0  0  0
  -17.6230  -10.5260   -4.4100 C   0  0  0  0  0  3  0  0  0  0  0  0
  -18.9920  -10.3980   -5.0630 C   0  0  0  0  0  0  0  0  0  0  0  0
  -20.7470   -8.9730   -4.2200 C   0  0  0  0  0  3  0  0  0  0  0  0
  -22.1920   -7.1960   -3.2940 C   0  0  0  0  0  0  0  0  0  0  0  0
  -22.0300   -7.7670   -1.9050 C   0  0  0  0  0  0  0  0  0  0  0  0
  -23.4590   -7.6770   -3.9680 C   0  0  0  0  0  0  0  0  0  0  0  0
  -22.1230   -5.6870   -3.2700 C   0  0  0  0  0  0  0  0  0  0  0  0
  -13.1230  -12.6400   -4.5030 C   0  0  0  0  0  0  0  0  0  0  0  0
  -18.8980  -10.6190   -6.5810 C   0  0  0  0  0  0  0  0  0  0  0  0
  -18.3220  -11.9730   -6.8650 C   0  0  0  0  0  0  0  0  0  0  0  0
  -20.5350   -9.7910   -8.2680 C   0  0  0  0  0  0  0  0  0  0  0  0
  -21.9970  -10.0520   -8.5610 C   0  0  0  0  0  0  0  0  0  0  0  0
  -19.6700  -10.2660   -9.4120 C   0  0  0  0  0  0  0  0  0  0  0  0
  -20.2950   -8.3280   -7.9750 C   0  0  0  0  0  0  0  0  0  0  0  0
  -12.6590  -11.7240   -5.6430 C   0  0  0  0  0  0  0  0  0  0  0  0
  -13.7390  -11.3670   -6.6380 C   0  0  0  0  0  0  0  0  0  0  0  0
  -14.3340  -12.5400   -7.4090 C   0  0  0  0  0  0  0  0  0  0  0  0
  -14.7400  -11.9590   -8.7530 C   0  0  0  0  0  0  0  0  0  0  0  0
  -13.2880  -10.4290   -7.7410 C   0  0  0  0  0  3  0  0  0  0  0  0
  -11.9730  -13.1110   -3.6370 C   0  0  0  0  0  3  0  0  0  0  0  0
  -16.2540  -11.5000   -2.6350 C   0  0  0  0  0  0  0  0  0  0  0  0
  -13.8220  -11.2300   -3.1880 H   0  0  0  0  0  0  0  0  0  0  0  0
  -13.5910  -10.4880   -9.6720 H   0  0  0  0  0  0  0  0  0  0  0  0
  -12.3190  -13.6340   -2.8830 H   0  0  0  0  0  0  0  0  0  0  0  0
  -11.4760  -14.5580   -4.7030 H   0  0  0  0  0  0  0  0  0  0  0  0
  -15.7950  -10.6770   -2.3420 H   0  0  0  0  0  0  0  0  0  0  0  0
  -16.0190  -12.1850   -0.6650 H   0  0  0  0  0  0  0  0  0  0  0  0
  -16.6650  -13.2900   -1.6190 H   0  0  0  0  0  0  0  0  0  0  0  0
  -18.5130  -12.4390   -0.5020 H   0  0  0  0  0  0  0  0  0  0  0  0
  -17.9810  -10.9420   -0.6310 H   0  0  0  0  0  0  0  0  0  0  0  0
  -19.4120  -11.0790   -2.4410 H   0  0  0  0  0  0  0  0  0  0  0  0
  -13.5440  -13.4370   -4.9100 H   0  0  0  0  0  0  0  0  0  0  0  0
  -18.9690  -12.5780   -2.7650 H   0  0  0  0  0  0  0  0  0  0  0  0
  -19.5890  -11.0650   -4.6770 H   0  0  0  0  0  0  0  0  0  0  0  0
  -19.0730   -8.3520   -4.8970 H   0  0  0  0  0  0  0  0  0  0  0  0
  -21.1640   -7.5070   -1.5460 H   0  0  0  0  0  0  0  0  0  0  0  0
  -22.7340   -7.4240   -1.3290 H   0  0  0  0  0  0  0  0  0  0  0  0
  -22.0860   -8.7360   -1.9430 H   0  0  0  0  0  0  0  0  0  0  0  0
  -23.4610   -7.3880   -4.8960 H   0  0  0  0  0  0  0  0  0  0  0  0
  -24.2310   -7.3040   -3.5110 H   0  0  0  0  0  0  0  0  0  0  0  0
  -23.4980   -8.6470   -3.9310 H   0  0  0  0  0  0  0  0  0  0  0  0
  -22.8090   -5.3400   -2.6730 H   0  0  0  0  0  0  0  0  0  0  0  0
  -11.9240  -12.1660   -6.1200 H   0  0  0  0  0  0  0  0  0  0  0  0
  -22.2700   -5.3410   -4.1660 H   0  0  0  0  0  0  0  0  0  0  0  0
  -21.2480   -5.4070   -2.9540 H   0  0  0  0  0  0  0  0  0  0  0  0
  -18.3360   -9.9480   -7.0550 H   0  0  0  0  0  0  0  0  0  0  0  0
  -17.4560  -12.0550   -6.4270 H   0  0  0  0  0  0  0  0  0  0  0  0
  -18.9240  -12.6590   -6.5260 H   0  0  0  0  0  0  0  0  0  0  0  0
  -18.2120  -12.0830   -7.8260 H   0  0  0  0  0  0  0  0  0  0  0  0
  -22.4530  -10.3060   -7.7410 H   0  0  0  0  0  0  0  0  0  0  0  0
  -22.0750  -10.7720   -9.2100 H   0  0  0  0  0  0  0  0  0  0  0  0
  -22.4050   -9.2470   -8.9210 H   0  0  0  0  0  0  0  0  0  0  0  0
  -18.7450  -10.0200   -9.2430 H   0  0  0  0  0  0  0  0  0  0  0  0
  -12.3030  -10.8970   -5.2540 H   0  0  0  0  0  0  0  0  0  0  0  0
  -19.9690   -9.8500  -10.2390 H   0  0  0  0  0  0  0  0  0  0  0  0
  -19.7390  -11.2320   -9.4920 H   0  0  0  0  0  0  0  0  0  0  0  0
  -20.8140   -8.0640   -7.1970 H   0  0  0  0  0  0  0  0  0  0  0  0
  -20.5660   -7.7950   -8.7410 H   0  0  0  0  0  0  0  0  0  0  0  0
  -19.3500   -8.1830   -7.7980 H   0  0  0  0  0  0  0  0  0  0  0  0
  -14.4600  -10.8950   -6.1510 H   0  0  0  0  0  0  0  0  0  0  0  0
  -13.6720  -13.2520   -7.5280 H   0  0  0  0  0  0  0  0  0  0  0  0
  -15.1130  -12.9060   -6.9420 H   0  0  0  0  0  0  0  0  0  0  0  0
  -14.6370  -12.6170   -9.4770 H   0  0  0  0  0  0  0  0  0  0  0  0
  -15.6710  -11.6440   -8.7440 H   0  0  0  0  0  0  0  0  0  0  0  0
  -14.0960  -11.9350   -3.6670 N   0  0  0  0  0  0  0  0  0  0  0  0
  -13.8010  -10.8480   -8.9030 N   0  0  0  0  0  0  0  0  0  0  0  0
  -17.5380  -11.1990   -3.2600 N   0  0  0  0  0  0  0  0  0  0  0  0
  -19.5190   -9.0910   -4.7530 N   0  0  0  0  0  0  0  0  0  0  0  0
  -15.8390  -13.2130   -4.2790 O   0  0  0  0  0  1  0  0  0  0  0  0
  -12.6160   -9.3870   -7.5770 O   0  0  0  0  0  1  0  0  0  0  0  0
  -11.0610  -13.8940   -4.3820 O   0  0  0  0  0  0  0  0  0  0  0  0
  -16.6080  -10.0360   -4.9330 O   0  0  0  0  0  1  0  0  0  0  0  0
  -21.4620   -9.9020   -3.9230 O   0  0  0  0  0  1  0  0  0  0  0  0
  -21.0550   -7.6750   -4.1110 O   0  0  0  0  0  0  0  0  0  0  0  0
  -20.2430  -10.5910   -7.0950 O   0  0  0  0  0  0  0  0  0  0  0  0
  1 25  1  0
  1 69  1  0
  1 73  1  0
  2  3  1  0
  2 25  1  0
  2 31  1  0
  2 32  1  0
  3  4  1  0
  3 33  1  0
  3 34  1  0
  4 35  1  0
  4 37  1  0
  4 71  1  0
  5  6  1  0
  5 71  1  0
  5 76  1  0
  6 13  1  0
  6 38  1  0
  6 72  1  0
  7 72  1  0
  7 77  1  0
  7 78  1  0
  8  9  1  0
  8 10  1  0
  8 11  1  0
  8 78  1  0
  9 40  1  0
  9 41  1  0
  9 42  1  0
 10 43  1  0
 10 44  1  0
 10 45  1  0
 11 46  1  0
 11 48  1  0
 11 49  1  0
 12 19  1  0
 12 24  1  0
 12 36  1  0
 12 69  1  0
 13 14  1  0
 13 50  1  0
 13 79  1  0
 14 51  1  0
 14 52  1  0
 14 53  1  0
 15 16  1  0
 15 17  1  0
 15 18  1  0
 15 79  1  0
 16 54  1  0
 16 55  1  0
 16 56  1  0
 17 57  1  0
 17 59  1  0
 17 60  1  0
 18 61  1  0
 18 62  1  0
 18 63  1  0
 19 20  1  0
 19 47  1  0
 19 58  1  0
 20 21  1  0
 20 23  1  0
 20 64  1  0
 21 22  1  0
 21 65  1  0
 21 66  1  0
 22 67  1  0
 22 68  1  0
 22 70  1  0
 23 70  1  0
 23 74  1  0
 24 28  1  0
 24 75  1  0
 25 30  1  0
 25 71  1  0
 26 69  1  0
 27 70  1  0
 29 75  1  0
 39 72  1  0
M  END
$$$$
