8p56_A_X77_406
     RDKit          3D

 66 69  0  0  0  0  0  0  0  0999 V2000
   21.8720    4.8680  -25.0150 C   0  0  0  0  0  3  0  0  0  0  0  0
   20.3820    5.8420  -26.6530 C   0  0  0  0  0  0  0  0  0  0  0  0
   20.1380    5.9450  -28.2160 C   0  0  0  0  0  3  0  0  0  0  0  0
   20.2080    7.3180  -30.2370 C   0  0  0  0  0  0  0  0  0  0  0  0
   20.1990    8.7950  -30.5920 C   0  0  0  0  0  0  0  0  0  0  0  0
   20.0850    8.9840  -32.1040 C   0  0  0  0  0  0  0  0  0  0  0  0
   21.2080    8.2670  -32.8300 C   0  0  0  0  0  0  0  0  0  0  0  0
   21.2250    6.7950  -32.4710 C   0  0  0  0  0  0  0  0  0  0  0  0
   21.3350    6.5960  -30.9600 C   0  0  0  0  0  0  0  0  0  0  0  0
   19.0000    5.5140  -26.1030 C   0  0  0  0  0  3  0  0  0  0  0  0
   18.1550    6.5180  -25.6390 C   0  0  0  0  0  3  0  0  0  0  0  0
   16.9090    6.2120  -25.1490 C   0  0  0  0  0  3  0  0  0  0  0  0
   16.5190    4.8980  -25.1580 C   0  0  0  0  0  3  0  0  0  0  0  0
   18.5030    4.2240  -26.0970 C   0  0  0  0  0  3  0  0  0  0  0  0
   22.3450    4.5960  -27.4520 C   0  0  0  0  0  3  0  0  0  0  0  0
   23.4460    5.3650  -27.8700 C   0  0  0  0  0  3  0  0  0  0  0  0
   24.2280    4.9540  -28.9350 C   0  0  0  0  0  3  0  0  0  0  0  0
   23.9750    3.7850  -29.6380 C   0  0  0  0  0  3  0  0  0  0  0  0
   24.8730    3.3710  -30.8170 C   0  0  0  0  0  0  0  0  0  0  0  0
   24.7490    4.3830  -31.9620 C   0  0  0  0  0  0  0  0  0  0  0  0
   24.5100    1.9850  -31.3600 C   0  0  0  0  0  0  0  0  0  0  0  0
   26.3350    3.3340  -30.3660 C   0  0  0  0  0  0  0  0  0  0  0  0
   22.8800    3.0320  -29.2300 C   0  0  0  0  0  3  0  0  0  0  0  0
   22.0750    3.4160  -28.1650 C   0  0  0  0  0  3  0  0  0  0  0  0
   23.1000    4.1780  -24.5960 C   0  0  0  0  0  3  0  0  0  0  0  0
   24.1360    3.5520  -25.2290 C   0  0  0  0  0  3  0  0  0  0  0  0
   24.4620    3.4710  -23.0680 C   0  0  0  0  0  3  0  0  0  0  0  0
   20.6960    6.6640  -26.2040 H   0  0  0  0  0  0  0  0  0  0  0  0
   20.5010    7.8150  -28.2830 H   0  0  0  0  0  0  0  0  0  0  0  0
   19.3480    6.9260  -30.5300 H   0  0  0  0  0  0  0  0  0  0  0  0
   19.4420    9.2330  -30.1470 H   0  0  0  0  0  0  0  0  0  0  0  0
   21.0250    9.2140  -30.2690 H   0  0  0  0  0  0  0  0  0  0  0  0
   20.1180    9.9420  -32.3160 H   0  0  0  0  0  0  0  0  0  0  0  0
   19.2210    8.6340  -32.4120 H   0  0  0  0  0  0  0  0  0  0  0  0
   22.0670    8.6740  -32.5880 H   0  0  0  0  0  0  0  0  0  0  0  0
   21.0870    8.3670  -33.7990 H   0  0  0  0  0  0  0  0  0  0  0  0
   20.4020    6.3690  -32.7970 H   0  0  0  0  0  0  0  0  0  0  0  0
   21.9870    6.3600  -32.9130 H   0  0  0  0  0  0  0  0  0  0  0  0
   21.2950    5.6390  -30.7510 H   0  0  0  0  0  0  0  0  0  0  0  0
   22.1970    6.9410  -30.6450 H   0  0  0  0  0  0  0  0  0  0  0  0
   18.4470    7.4140  -25.6640 H   0  0  0  0  0  0  0  0  0  0  0  0
   16.3400    6.8840  -24.8160 H   0  0  0  0  0  0  0  0  0  0  0  0
   15.6700    4.6800  -24.8120 H   0  0  0  0  0  0  0  0  0  0  0  0
   19.0450    3.5340  -26.4340 H   0  0  0  0  0  0  0  0  0  0  0  0
   23.6490    6.1660  -27.4190 H   0  0  0  0  0  0  0  0  0  0  0  0
   24.9610    5.4880  -29.1930 H   0  0  0  0  0  0  0  0  0  0  0  0
   23.8310    4.3990  -32.2850 H   0  0  0  0  0  0  0  0  0  0  0  0
   25.3420    4.1270  -32.6890 H   0  0  0  0  0  0  0  0  0  0  0  0
   24.9940    5.2690  -31.6420 H   0  0  0  0  0  0  0  0  0  0  0  0
   23.6060    2.0020  -31.7180 H   0  0  0  0  0  0  0  0  0  0  0  0
   25.1320    1.7390  -32.0660 H   0  0  0  0  0  0  0  0  0  0  0  0
   24.5610    1.3300  -30.6420 H   0  0  0  0  0  0  0  0  0  0  0  0
   26.8970    3.0460  -31.1060 H   0  0  0  0  0  0  0  0  0  0  0  0
   26.4320    2.7100  -29.6260 H   0  0  0  0  0  0  0  0  0  0  0  0
   26.6090    4.2220  -30.0780 H   0  0  0  0  0  0  0  0  0  0  0  0
   22.6780    2.2340  -29.6910 H   0  0  0  0  0  0  0  0  0  0  0  0
   21.3390    2.8830  -27.9160 H   0  0  0  0  0  0  0  0  0  0  0  0
   24.2590    3.4370  -26.1610 H   0  0  0  0  0  0  0  0  0  0  0  0
   24.8680    3.2780  -22.2120 H   0  0  0  0  0  0  0  0  0  0  0  0
   21.5290    5.0070  -26.3510 N   0  0  0  0  0  0  0  0  0  0  0  0
   20.3140    7.1280  -28.7930 N   0  0  0  0  0  0  0  0  0  0  0  0
   17.2780    3.9060  -25.6340 N   0  0  0  0  0  2  0  0  0  0  0  0
   24.9890    3.1090  -24.2520 N   0  0  0  0  0  2  0  0  0  0  0  0
   23.3300    4.1200  -23.2220 N   0  0  0  0  0  2  0  0  0  0  0  0
   21.1620    5.3480  -24.1400 O   0  0  0  0  0  1  0  0  0  0  0  0
   19.7520    4.9530  -28.8660 O   0  0  0  0  0  1  0  0  0  0  0  0
  1 25  1  0
  1 60  1  0
  1 65  1  0
  2  3  1  0
  2 10  1  0
  2 28  1  0
  2 60  1  0
  3 61  1  0
  3 66  1  0
  4  5  1  0
  4  9  1  0
  4 30  1  0
  4 61  1  0
  5  6  1  0
  5 31  1  0
  5 32  1  0
  6  7  1  0
  6 33  1  0
  6 34  1  0
  7  8  1  0
  7 35  1  0
  7 36  1  0
  8  9  1  0
  8 37  1  0
  8 38  1  0
  9 39  1  0
  9 40  1  0
 10 11  1  0
 10 14  1  0
 11 12  1  0
 11 41  1  0
 12 13  1  0
 12 42  1  0
 13 43  1  0
 13 62  1  0
 14 44  1  0
 14 62  1  0
 15 16  1  0
 15 24  1  0
 15 60  1  0
 16 17  1  0
 16 45  1  0
 17 18  1  0
 17 46  1  0
 18 19  1  0
 18 23  1  0
 19 20  1  0
 19 21  1  0
 19 22  1  0
 20 47  1  0
 20 48  1  0
 20 49  1  0
 21 50  1  0
 21 51  1  0
 21 52  1  0
 22 53  1  0
 22 54  1  0
 22 55  1  0
 23 24  1  0
 23 56  1  0
 24 57  1  0
 25 26  1  0
 25 64  1  0
 26 58  1  0
 26 63  1  0
 27 59  1  0
 27 63  1  0
 27 64  1  0
 29 61  1  0
M  END
$$$$
