8p57_A_X77_402
     RDKit          3D

 66 69  0  0  0  0  0  0  0  0999 V2000
   21.8240    4.7890  -25.0080 C   0  0  0  0  0  3  0  0  0  0  0  0
   20.3840    5.7820  -26.6180 C   0  0  0  0  0  0  0  0  0  0  0  0
   20.1040    5.9410  -28.1920 C   0  0  0  0  0  3  0  0  0  0  0  0
   20.1910    7.3130  -30.2350 C   0  0  0  0  0  0  0  0  0  0  0  0
   20.1800    8.7910  -30.5910 C   0  0  0  0  0  0  0  0  0  0  0  0
   20.0690    8.9910  -32.1020 C   0  0  0  0  0  0  0  0  0  0  0  0
   21.1900    8.2790  -32.8350 C   0  0  0  0  0  0  0  0  0  0  0  0
   21.2060    6.8050  -32.4840 C   0  0  0  0  0  0  0  0  0  0  0  0
   21.3100    6.5950  -30.9730 C   0  0  0  0  0  0  0  0  0  0  0  0
   18.9910    5.4700  -26.0750 C   0  0  0  0  0  3  0  0  0  0  0  0
   18.1230    6.4640  -25.6230 C   0  0  0  0  0  3  0  0  0  0  0  0
   16.8840    6.1350  -25.1190 C   0  0  0  0  0  3  0  0  0  0  0  0
   16.5190    4.8130  -25.1080 C   0  0  0  0  0  3  0  0  0  0  0  0
   18.5120    4.1730  -26.0520 C   0  0  0  0  0  3  0  0  0  0  0  0
   22.3200    4.5630  -27.4670 C   0  0  0  0  0  3  0  0  0  0  0  0
   23.4190    5.3440  -27.8660 C   0  0  0  0  0  3  0  0  0  0  0  0
   24.2100    4.9450  -28.9270 C   0  0  0  0  0  3  0  0  0  0  0  0
   23.9620    3.7760  -29.6360 C   0  0  0  0  0  3  0  0  0  0  0  0
   24.8580    3.3630  -30.8120 C   0  0  0  0  0  0  0  0  0  0  0  0
   24.7260    4.3720  -31.9540 C   0  0  0  0  0  0  0  0  0  0  0  0
   24.4890    1.9750  -31.3500 C   0  0  0  0  0  0  0  0  0  0  0  0
   26.3250    3.3280  -30.3690 C   0  0  0  0  0  0  0  0  0  0  0  0
   22.8650    3.0210  -29.2420 C   0  0  0  0  0  3  0  0  0  0  0  0
   22.0540    3.3940  -28.1880 C   0  0  0  0  0  3  0  0  0  0  0  0
   23.0610    4.1280  -24.5910 C   0  0  0  0  0  3  0  0  0  0  0  0
   24.0810    3.4890  -25.2370 C   0  0  0  0  0  3  0  0  0  0  0  0
   24.4450    3.4240  -23.0860 C   0  0  0  0  0  3  0  0  0  0  0  0
   20.7370    6.5760  -26.1490 H   0  0  0  0  0  0  0  0  0  0  0  0
   20.5260    7.8070  -28.2820 H   0  0  0  0  0  0  0  0  0  0  0  0
   19.3280    6.9180  -30.5150 H   0  0  0  0  0  0  0  0  0  0  0  0
   19.4220    9.2270  -30.1470 H   0  0  0  0  0  0  0  0  0  0  0  0
   21.0050    9.2100  -30.2660 H   0  0  0  0  0  0  0  0  0  0  0  0
   20.1040    9.9510  -32.3070 H   0  0  0  0  0  0  0  0  0  0  0  0
   19.2050    8.6450  -32.4140 H   0  0  0  0  0  0  0  0  0  0  0  0
   22.0500    8.6830  -32.5910 H   0  0  0  0  0  0  0  0  0  0  0  0
   21.0680    8.3840  -33.8020 H   0  0  0  0  0  0  0  0  0  0  0  0
   20.3840    6.3820  -32.8150 H   0  0  0  0  0  0  0  0  0  0  0  0
   21.9690    6.3730  -32.9260 H   0  0  0  0  0  0  0  0  0  0  0  0
   21.2660    5.6350  -30.7740 H   0  0  0  0  0  0  0  0  0  0  0  0
   22.1750    6.9320  -30.6560 H   0  0  0  0  0  0  0  0  0  0  0  0
   18.3930    7.3670  -25.6660 H   0  0  0  0  0  0  0  0  0  0  0  0
   16.3020    6.8000  -24.7910 H   0  0  0  0  0  0  0  0  0  0  0  0
   15.6760    4.5800  -24.7580 H   0  0  0  0  0  0  0  0  0  0  0  0
   19.0610    3.4910  -26.3930 H   0  0  0  0  0  0  0  0  0  0  0  0
   23.6140    6.1430  -27.4060 H   0  0  0  0  0  0  0  0  0  0  0  0
   24.9420    5.4830  -29.1780 H   0  0  0  0  0  0  0  0  0  0  0  0
   23.8050    4.3940  -32.2660 H   0  0  0  0  0  0  0  0  0  0  0  0
   25.3100    4.1120  -32.6880 H   0  0  0  0  0  0  0  0  0  0  0  0
   24.9810    5.2570  -31.6380 H   0  0  0  0  0  0  0  0  0  0  0  0
   23.5790    1.9910  -31.6950 H   0  0  0  0  0  0  0  0  0  0  0  0
   25.1010    1.7300  -32.0660 H   0  0  0  0  0  0  0  0  0  0  0  0
   24.5520    1.3200  -30.6340 H   0  0  0  0  0  0  0  0  0  0  0  0
   26.8840    3.0490  -31.1150 H   0  0  0  0  0  0  0  0  0  0  0  0
   26.4290    2.6990  -29.6340 H   0  0  0  0  0  0  0  0  0  0  0  0
   26.5980    4.2150  -30.0760 H   0  0  0  0  0  0  0  0  0  0  0  0
   22.6670    2.2260  -29.7110 H   0  0  0  0  0  0  0  0  0  0  0  0
   21.3160    2.8600  -27.9490 H   0  0  0  0  0  0  0  0  0  0  0  0
   24.1870    3.3630  -26.1700 H   0  0  0  0  0  0  0  0  0  0  0  0
   24.8680    3.2380  -22.2360 H   0  0  0  0  0  0  0  0  0  0  0  0
   21.5100    4.9110  -26.3480 N   0  0  0  0  0  0  0  0  0  0  0  0
   20.3110    7.1240  -28.7860 N   0  0  0  0  0  0  0  0  0  0  0  0
   17.3040    3.8310  -25.5700 N   0  0  0  0  0  2  0  0  0  0  0  0
   24.9470    3.0530  -24.2700 N   0  0  0  0  0  2  0  0  0  0  0  0
   23.3090    4.0710  -23.2230 N   0  0  0  0  0  2  0  0  0  0  0  0
   21.0770    5.2410  -24.1440 O   0  0  0  0  0  1  0  0  0  0  0  0
   19.6640    4.9810  -28.8410 O   0  0  0  0  0  1  0  0  0  0  0  0
  1 25  1  0
  1 60  1  0
  1 65  1  0
  2  3  1  0
  2 10  1  0
  2 28  1  0
  2 60  1  0
  3 61  1  0
  3 66  1  0
  4  5  1  0
  4  9  1  0
  4 30  1  0
  4 61  1  0
  5  6  1  0
  5 31  1  0
  5 32  1  0
  6  7  1  0
  6 33  1  0
  6 34  1  0
  7  8  1  0
  7 35  1  0
  7 36  1  0
  8  9  1  0
  8 37  1  0
  8 38  1  0
  9 39  1  0
  9 40  1  0
 10 11  1  0
 10 14  1  0
 11 12  1  0
 11 41  1  0
 12 13  1  0
 12 42  1  0
 13 43  1  0
 13 62  1  0
 14 44  1  0
 14 62  1  0
 15 16  1  0
 15 24  1  0
 15 60  1  0
 16 17  1  0
 16 45  1  0
 17 18  1  0
 17 46  1  0
 18 19  1  0
 18 23  1  0
 19 20  1  0
 19 21  1  0
 19 22  1  0
 20 47  1  0
 20 48  1  0
 20 49  1  0
 21 50  1  0
 21 51  1  0
 21 52  1  0
 22 53  1  0
 22 54  1  0
 22 55  1  0
 23 24  1  0
 23 56  1  0
 24 57  1  0
 25 26  1  0
 25 64  1  0
 26 58  1  0
 26 63  1  0
 27 59  1  0
 27 63  1  0
 27 64  1  0
 29 61  1  0
M  END
$$$$
