8p5a_A_X77_410
     RDKit          3D

 66 69  0  0  0  0  0  0  0  0999 V2000
   21.8950    5.3650  -25.3250 C   0  0  0  0  0  3  0  0  0  0  0  0
   20.3240    6.2930  -26.9410 C   0  0  0  0  0  0  0  0  0  0  0  0
   20.0690    6.3160  -28.4400 C   0  0  0  0  0  3  0  0  0  0  0  0
   20.1840    7.6330  -30.4780 C   0  0  0  0  0  0  0  0  0  0  0  0
   20.1890    9.0970  -30.8540 C   0  0  0  0  0  0  0  0  0  0  0  0
   20.0680    9.2560  -32.3600 C   0  0  0  0  0  0  0  0  0  0  0  0
   21.1820    8.5290  -33.0540 C   0  0  0  0  0  0  0  0  0  0  0  0
   21.2430    7.0680  -32.6660 C   0  0  0  0  0  0  0  0  0  0  0  0
   21.3230    6.8990  -31.1550 C   0  0  0  0  0  0  0  0  0  0  0  0
   18.9940    5.9210  -26.3150 C   0  0  0  0  0  3  0  0  0  0  0  0
   18.0510    6.8720  -25.9740 C   0  0  0  0  0  3  0  0  0  0  0  0
   16.8620    6.5360  -25.4500 C   0  0  0  0  0  3  0  0  0  0  0  0
   16.5600    5.2580  -25.3800 C   0  0  0  0  0  3  0  0  0  0  0  0
   18.5720    4.6270  -26.2460 C   0  0  0  0  0  3  0  0  0  0  0  0
   22.3320    5.0350  -27.6980 C   0  0  0  0  0  3  0  0  0  0  0  0
   23.3540    5.8420  -28.2000 C   0  0  0  0  0  3  0  0  0  0  0  0
   24.1400    5.4180  -29.2470 C   0  0  0  0  0  3  0  0  0  0  0  0
   23.9890    4.1800  -29.8390 C   0  0  0  0  0  3  0  0  0  0  0  0
   24.8900    3.7480  -31.0040 C   0  0  0  0  0  0  0  0  0  0  0  0
   24.8230    4.7700  -32.1420 C   0  0  0  0  0  0  0  0  0  0  0  0
   24.4730    2.3980  -31.5770 C   0  0  0  0  0  0  0  0  0  0  0  0
   26.3370    3.6530  -30.5340 C   0  0  0  0  0  0  0  0  0  0  0  0
   22.9830    3.3790  -29.3330 C   0  0  0  0  0  3  0  0  0  0  0  0
   22.1710    3.7840  -28.2960 C   0  0  0  0  0  3  0  0  0  0  0  0
   23.1120    4.6720  -24.9550 C   0  0  0  0  0  3  0  0  0  0  0  0
   24.1380    4.1010  -25.6380 C   0  0  0  0  0  3  0  0  0  0  0  0
   24.4880    3.8800  -23.5100 C   0  0  0  0  0  3  0  0  0  0  0  0
   20.5290    7.2190  -26.6660 H   0  0  0  0  0  0  0  0  0  0  0  0
   20.4430    8.1790  -28.5370 H   0  0  0  0  0  0  0  0  0  0  0  0
   19.3310    7.2350  -30.7820 H   0  0  0  0  0  0  0  0  0  0  0  0
   19.4390    9.5510  -30.4130 H   0  0  0  0  0  0  0  0  0  0  0  0
   21.0230    9.5110  -30.5450 H   0  0  0  0  0  0  0  0  0  0  0  0
   20.1030   10.2090  -32.5940 H   0  0  0  0  0  0  0  0  0  0  0  0
   19.2040    8.8980  -32.6600 H   0  0  0  0  0  0  0  0  0  0  0  0
   22.0360    8.9570  -32.8300 H   0  0  0  0  0  0  0  0  0  0  0  0
   21.0570    8.5990  -34.0240 H   0  0  0  0  0  0  0  0  0  0  0  0
   20.4430    6.6080  -33.0030 H   0  0  0  0  0  0  0  0  0  0  0  0
   22.0290    6.6530  -33.0820 H   0  0  0  0  0  0  0  0  0  0  0  0
   21.2790    5.9450  -30.9270 H   0  0  0  0  0  0  0  0  0  0  0  0
   22.1780    7.2520  -30.8290 H   0  0  0  0  0  0  0  0  0  0  0  0
   18.2800    7.7800  -26.0420 H   0  0  0  0  0  0  0  0  0  0  0  0
   16.2420    7.1960  -25.1900 H   0  0  0  0  0  0  0  0  0  0  0  0
   15.7200    5.0090  -25.0340 H   0  0  0  0  0  0  0  0  0  0  0  0
   19.1590    3.9390  -26.5010 H   0  0  0  0  0  0  0  0  0  0  0  0
   23.4930    6.6960  -27.8260 H   0  0  0  0  0  0  0  0  0  0  0  0
   24.8190    5.9900  -29.5640 H   0  0  0  0  0  0  0  0  0  0  0  0
   23.9070    4.8420  -32.4620 H   0  0  0  0  0  0  0  0  0  0  0  0
   25.3990    4.4830  -32.8720 H   0  0  0  0  0  0  0  0  0  0  0  0
   25.1210    5.6380  -31.8180 H   0  0  0  0  0  0  0  0  0  0  0  0
   23.5630    2.4560  -31.9170 H   0  0  0  0  0  0  0  0  0  0  0  0
   25.0730    2.1520  -32.3010 H   0  0  0  0  0  0  0  0  0  0  0  0
   24.5140    1.7210  -30.8790 H   0  0  0  0  0  0  0  0  0  0  0  0
   26.9040    3.3840  -31.2780 H   0  0  0  0  0  0  0  0  0  0  0  0
   26.4050    2.9950  -29.8210 H   0  0  0  0  0  0  0  0  0  0  0  0
   26.6290    4.5200  -30.2030 H   0  0  0  0  0  0  0  0  0  0  0  0
   22.8420    2.5300  -29.7180 H   0  0  0  0  0  0  0  0  0  0  0  0
   21.4970    3.2070  -27.9790 H   0  0  0  0  0  0  0  0  0  0  0  0
   24.2500    4.0410  -26.5770 H   0  0  0  0  0  0  0  0  0  0  0  0
   24.9100    3.6350  -22.6740 H   0  0  0  0  0  0  0  0  0  0  0  0
   21.5140    5.4830  -26.6090 N   0  0  0  0  0  0  0  0  0  0  0  0
   20.2620    7.4810  -29.0350 N   0  0  0  0  0  0  0  0  0  0  0  0
   17.3790    4.3140  -25.7660 N   0  0  0  0  0  2  0  0  0  0  0  0
   24.9940    3.6010  -24.7060 N   0  0  0  0  0  2  0  0  0  0  0  0
   23.3570    4.5270  -23.6020 N   0  0  0  0  0  2  0  0  0  0  0  0
   21.2410    5.8800  -24.4450 O   0  0  0  0  0  1  0  0  0  0  0  0
   19.7160    5.3280  -29.0530 O   0  0  0  0  0  1  0  0  0  0  0  0
  1 25  1  0
  1 60  1  0
  1 65  1  0
  2  3  1  0
  2 10  1  0
  2 28  1  0
  2 60  1  0
  3 61  1  0
  3 66  1  0
  4  5  1  0
  4  9  1  0
  4 30  1  0
  4 61  1  0
  5  6  1  0
  5 31  1  0
  5 32  1  0
  6  7  1  0
  6 33  1  0
  6 34  1  0
  7  8  1  0
  7 35  1  0
  7 36  1  0
  8  9  1  0
  8 37  1  0
  8 38  1  0
  9 39  1  0
  9 40  1  0
 10 11  1  0
 10 14  1  0
 11 12  1  0
 11 41  1  0
 12 13  1  0
 12 42  1  0
 13 43  1  0
 13 62  1  0
 14 44  1  0
 14 62  1  0
 15 16  1  0
 15 24  1  0
 15 60  1  0
 16 17  1  0
 16 45  1  0
 17 18  1  0
 17 46  1  0
 18 19  1  0
 18 23  1  0
 19 20  1  0
 19 21  1  0
 19 22  1  0
 20 47  1  0
 20 48  1  0
 20 49  1  0
 21 50  1  0
 21 51  1  0
 21 52  1  0
 22 53  1  0
 22 54  1  0
 22 55  1  0
 23 24  1  0
 23 56  1  0
 24 57  1  0
 25 26  1  0
 25 64  1  0
 26 58  1  0
 26 63  1  0
 27 59  1  0
 27 63  1  0
 27 64  1  0
 29 61  1  0
M  END
$$$$
