8p5c_A_9M5_401
     RDKit          3D

 66 69  0  0  0  0  0  0  0  0999 V2000
   21.9130    6.1200  -24.7420 C   0  0  0  0  0  3  0  0  0  0  0  0
   20.5940    5.0470  -26.5030 C   0  0  0  0  0  0  0  0  0  0  0  0
   20.6500    4.7630  -28.0200 C   0  0  0  0  0  3  0  0  0  0  0  0
   22.6170    4.0670  -29.3900 C   0  0  0  0  0  0  0  0  0  0  0  0
   23.2970    2.7440  -29.6740 C   0  0  0  0  0  0  0  0  0  0  0  0
   23.3330    2.4080  -31.1620 C   0  0  0  0  0  0  0  0  0  0  0  0
   23.9210    3.5370  -31.9700 C   0  0  0  0  0  0  0  0  0  0  0  0
   23.1870    4.8360  -31.7210 C   0  0  0  0  0  0  0  0  0  0  0  0
   22.0920    4.7000  -30.6600 C   0  0  0  0  0  0  0  0  0  0  0  0
   19.1720    5.3040  -26.0200 C   0  0  0  0  0  3  0  0  0  0  0  0
   18.6770    6.5230  -25.5950 C   0  0  0  0  0  3  0  0  0  0  0  0
   17.3800    6.6370  -25.1680 C   0  0  0  0  0  3  0  0  0  0  0  0
   16.6220    5.5380  -25.1360 C   0  0  0  0  0  3  0  0  0  0  0  0
   18.2970    4.2570  -25.9680 C   0  0  0  0  0  3  0  0  0  0  0  0
   22.1840    6.9180  -27.0240 C   0  0  0  0  0  3  0  0  0  0  0  0
   21.4500    7.9000  -27.7070 C   0  0  0  0  0  3  0  0  0  0  0  0
   22.0690    8.7340  -28.6190 C   0  0  0  0  0  3  0  0  0  0  0  0
   23.4240    8.6340  -28.8940 C   0  0  0  0  0  3  0  0  0  0  0  0
   24.1310    9.5790  -29.8640 C   0  0  0  0  0  0  0  0  0  0  0  0
   23.1350   10.5440  -30.5090 C   0  0  0  0  0  0  0  0  0  0  0  0
   24.8680    8.7960  -30.9510 C   0  0  0  0  0  0  0  0  0  0  0  0
   25.1590   10.3970  -29.0830 C   0  0  0  0  0  0  0  0  0  0  0  0
   24.1420    7.6590  -28.2250 C   0  0  0  0  0  3  0  0  0  0  0  0
   23.5520    6.8230  -27.3020 C   0  0  0  0  0  3  0  0  0  0  0  0
   22.7640    7.2120  -24.2690 C   0  0  0  0  0  3  0  0  0  0  0  0
   23.5920    7.2160  -23.1850 C   0  0  0  0  0  3  0  0  0  0  0  0
   23.6580    9.1680  -24.1500 C   0  0  0  0  0  3  0  0  0  0  0  0
   20.8730    4.2050  -26.0680 H   0  0  0  0  0  0  0  0  0  0  0  0
   21.5920    3.1170  -27.9390 H   0  0  0  0  0  0  0  0  0  0  0  0
   23.2970    4.6770  -29.0110 H   0  0  0  0  0  0  0  0  0  0  0  0
   24.2150    2.7760  -29.3290 H   0  0  0  0  0  0  0  0  0  0  0  0
   22.8220    2.0320  -29.1950 H   0  0  0  0  0  0  0  0  0  0  0  0
   22.4210    2.2250  -31.4750 H   0  0  0  0  0  0  0  0  0  0  0  0
   23.8690    1.5970  -31.2980 H   0  0  0  0  0  0  0  0  0  0  0  0
   23.8720    3.3130  -32.9240 H   0  0  0  0  0  0  0  0  0  0  0  0
   24.8670    3.6480  -31.7340 H   0  0  0  0  0  0  0  0  0  0  0  0
   23.8310    5.5190  -31.4320 H   0  0  0  0  0  0  0  0  0  0  0  0
   22.7820    5.1430  -32.5620 H   0  0  0  0  0  0  0  0  0  0  0  0
   21.7300    5.5880  -30.4520 H   0  0  0  0  0  0  0  0  0  0  0  0
   21.3620    4.1510  -31.0160 H   0  0  0  0  0  0  0  0  0  0  0  0
   19.2400    7.2790  -25.6050 H   0  0  0  0  0  0  0  0  0  0  0  0
   17.0410    7.4650  -24.8730 H   0  0  0  0  0  0  0  0  0  0  0  0
   15.7250    5.6190  -24.8590 H   0  0  0  0  0  0  0  0  0  0  0  0
   18.6010    3.4120  -26.2430 H   0  0  0  0  0  0  0  0  0  0  0  0
   20.5280    7.9920  -27.5360 H   0  0  0  0  0  0  0  0  0  0  0  0
   21.5580    9.3950  -29.0550 H   0  0  0  0  0  0  0  0  0  0  0  0
   22.4440   10.0370  -30.9700 H   0  0  0  0  0  0  0  0  0  0  0  0
   23.6000   11.1120  -31.1480 H   0  0  0  0  0  0  0  0  0  0  0  0
   22.7260   11.0970  -29.8220 H   0  0  0  0  0  0  0  0  0  0  0  0
   25.1530    9.4040  -31.6550 H   0  0  0  0  0  0  0  0  0  0  0  0
   24.2750    8.1230  -31.3270 H   0  0  0  0  0  0  0  0  0  0  0  0
   25.6480    8.3590  -30.5670 H   0  0  0  0  0  0  0  0  0  0  0  0
   25.9440    9.8500  -28.9060 H   0  0  0  0  0  0  0  0  0  0  0  0
   24.7720   10.6880  -28.2390 H   0  0  0  0  0  0  0  0  0  0  0  0
   25.4200   11.1760  -29.6040 H   0  0  0  0  0  0  0  0  0  0  0  0
   25.0690    7.5860  -28.3830 H   0  0  0  0  0  0  0  0  0  0  0  0
   24.0700    6.1710  -26.8610 H   0  0  0  0  0  0  0  0  0  0  0  0
   23.7660    6.5040  -22.5850 H   0  0  0  0  0  0  0  0  0  0  0  0
   23.9020   10.0850  -24.3380 H   0  0  0  0  0  0  0  0  0  0  0  0
   21.5770    6.0440  -26.0610 N   0  0  0  0  0  0  0  0  0  0  0  0
   21.5910    3.8810  -28.3680 N   0  0  0  0  0  0  0  0  0  0  0  0
   17.0330    4.3660  -25.5520 N   0  0  0  0  0  2  0  0  0  0  0  0
   24.1580    8.4570  -23.1360 N   0  0  0  0  0  2  0  0  0  0  0  0
   22.8100    8.4670  -24.8650 N   0  0  0  0  0  2  0  0  0  0  0  0
   21.5130    5.2990  -23.9430 O   0  0  0  0  0  1  0  0  0  0  0  0
   19.7860    5.1750  -28.7910 O   0  0  0  0  0  1  0  0  0  0  0  0
  1 25  1  0
  1 60  1  0
  1 65  1  0
  2  3  1  0
  2 10  1  0
  2 28  1  0
  2 60  1  0
  3 61  1  0
  3 66  1  0
  4  5  1  0
  4  9  1  0
  4 30  1  0
  4 61  1  0
  5  6  1  0
  5 31  1  0
  5 32  1  0
  6  7  1  0
  6 33  1  0
  6 34  1  0
  7  8  1  0
  7 35  1  0
  7 36  1  0
  8  9  1  0
  8 37  1  0
  8 38  1  0
  9 39  1  0
  9 40  1  0
 10 11  1  0
 10 14  1  0
 11 12  1  0
 11 41  1  0
 12 13  1  0
 12 42  1  0
 13 43  1  0
 13 62  1  0
 14 44  1  0
 14 62  1  0
 15 16  1  0
 15 24  1  0
 15 60  1  0
 16 17  1  0
 16 45  1  0
 17 18  1  0
 17 46  1  0
 18 19  1  0
 18 23  1  0
 19 20  1  0
 19 21  1  0
 19 22  1  0
 20 47  1  0
 20 48  1  0
 20 49  1  0
 21 50  1  0
 21 51  1  0
 21 52  1  0
 22 53  1  0
 22 54  1  0
 22 55  1  0
 23 24  1  0
 23 56  1  0
 24 57  1  0
 25 26  1  0
 25 64  1  0
 26 58  1  0
 26 63  1  0
 27 59  1  0
 27 63  1  0
 27 64  1  0
 29 61  1  0
M  END
$$$$
