8p87_A_X77_404
     RDKit          3D

 66 69  0  0  0  0  0  0  0  0999 V2000
   21.7050    4.8460  -25.0450 C   0  0  0  0  0  3  0  0  0  0  0  0
   20.2850    5.9010  -26.6630 C   0  0  0  0  0  0  0  0  0  0  0  0
   20.0260    6.0020  -28.2310 C   0  0  0  0  0  3  0  0  0  0  0  0
   20.0740    7.3400  -30.2990 C   0  0  0  0  0  0  0  0  0  0  0  0
   20.2930    8.7950  -30.6820 C   0  0  0  0  0  0  0  0  0  0  0  0
   20.2070    8.9800  -32.1950 C   0  0  0  0  0  0  0  0  0  0  0  0
   21.1920    8.0750  -32.9110 C   0  0  0  0  0  0  0  0  0  0  0  0
   20.9660    6.6240  -32.5350 C   0  0  0  0  0  0  0  0  0  0  0  0
   21.0560    6.4330  -31.0220 C   0  0  0  0  0  0  0  0  0  0  0  0
   18.9210    5.5840  -26.0570 C   0  0  0  0  0  3  0  0  0  0  0  0
   18.0820    6.5930  -25.5990 C   0  0  0  0  0  3  0  0  0  0  0  0
   16.8590    6.2820  -25.0490 C   0  0  0  0  0  3  0  0  0  0  0  0
   16.4950    4.9570  -24.9910 C   0  0  0  0  0  3  0  0  0  0  0  0
   18.4580    4.2860  -25.9830 C   0  0  0  0  0  3  0  0  0  0  0  0
   22.1930    4.6170  -27.5040 C   0  0  0  0  0  3  0  0  0  0  0  0
   23.2690    5.3960  -27.9730 C   0  0  0  0  0  3  0  0  0  0  0  0
   24.0290    4.9630  -29.0440 C   0  0  0  0  0  3  0  0  0  0  0  0
   23.7690    3.7630  -29.6990 C   0  0  0  0  0  3  0  0  0  0  0  0
   24.6240    3.3060  -30.8880 C   0  0  0  0  0  0  0  0  0  0  0  0
   24.4830    4.2920  -32.0530 C   0  0  0  0  0  0  0  0  0  0  0  0
   24.2140    1.9110  -31.3790 C   0  0  0  0  0  0  0  0  0  0  0  0
   26.0970    3.2590  -30.4720 C   0  0  0  0  0  0  0  0  0  0  0  0
   22.7040    3.0050  -29.2310 C   0  0  0  0  0  3  0  0  0  0  0  0
   21.9250    3.4130  -28.1670 C   0  0  0  0  0  3  0  0  0  0  0  0
   22.9630    4.2120  -24.6530 C   0  0  0  0  0  3  0  0  0  0  0  0
   23.9610    3.5640  -25.3260 C   0  0  0  0  0  3  0  0  0  0  0  0
   24.4160    3.5660  -23.1890 C   0  0  0  0  0  3  0  0  0  0  0  0
   20.6120    6.7390  -26.2540 H   0  0  0  0  0  0  0  0  0  0  0  0
   20.3610    7.8810  -28.3500 H   0  0  0  0  0  0  0  0  0  0  0  0
   19.1610    7.0760  -30.5720 H   0  0  0  0  0  0  0  0  0  0  0  0
   19.6150    9.3520  -30.2450 H   0  0  0  0  0  0  0  0  0  0  0  0
   21.1760    9.0850  -30.3670 H   0  0  0  0  0  0  0  0  0  0  0  0
   20.3980    9.9160  -32.4220 H   0  0  0  0  0  0  0  0  0  0  0  0
   19.2950    8.7740  -32.4980 H   0  0  0  0  0  0  0  0  0  0  0  0
   22.1080    8.3350  -32.6730 H   0  0  0  0  0  0  0  0  0  0  0  0
   21.0890    8.1810  -33.8810 H   0  0  0  0  0  0  0  0  0  0  0  0
   20.0790    6.3390  -32.8480 H   0  0  0  0  0  0  0  0  0  0  0  0
   21.6390    6.0620  -32.9760 H   0  0  0  0  0  0  0  0  0  0  0  0
   20.8610    5.4980  -30.7970 H   0  0  0  0  0  0  0  0  0  0  0  0
   21.9680    6.6340  -30.7200 H   0  0  0  0  0  0  0  0  0  0  0  0
   18.3580    7.4930  -25.6690 H   0  0  0  0  0  0  0  0  0  0  0  0
   16.2890    6.9560  -24.7220 H   0  0  0  0  0  0  0  0  0  0  0  0
   15.6670    4.7350  -24.6000 H   0  0  0  0  0  0  0  0  0  0  0  0
   19.0070    3.5970  -26.3110 H   0  0  0  0  0  0  0  0  0  0  0  0
   23.4680    6.2160  -27.5530 H   0  0  0  0  0  0  0  0  0  0  0  0
   24.7470    5.4980  -29.3400 H   0  0  0  0  0  0  0  0  0  0  0  0
   23.5550    4.3190  -32.3470 H   0  0  0  0  0  0  0  0  0  0  0  0
   25.0470    4.0060  -32.7920 H   0  0  0  0  0  0  0  0  0  0  0  0
   24.7550    5.1800  -31.7630 H   0  0  0  0  0  0  0  0  0  0  0  0
   23.2920    1.9320  -31.6900 H   0  0  0  0  0  0  0  0  0  0  0  0
   24.7950    1.6390  -32.1110 H   0  0  0  0  0  0  0  0  0  0  0  0
   24.2930    1.2720  -30.6490 H   0  0  0  0  0  0  0  0  0  0  0  0
   26.6400    2.9710  -31.2270 H   0  0  0  0  0  0  0  0  0  0  0  0
   26.2080    2.6320  -29.7370 H   0  0  0  0  0  0  0  0  0  0  0  0
   26.3840    4.1440  -30.1880 H   0  0  0  0  0  0  0  0  0  0  0  0
   22.5080    2.1860  -29.6540 H   0  0  0  0  0  0  0  0  0  0  0  0
   21.2040    2.8780  -27.8810 H   0  0  0  0  0  0  0  0  0  0  0  0
   24.0270    3.4100  -26.2590 H   0  0  0  0  0  0  0  0  0  0  0  0
   24.8780    3.4110  -22.3530 H   0  0  0  0  0  0  0  0  0  0  0  0
   21.4060    5.0110  -26.3710 N   0  0  0  0  0  0  0  0  0  0  0  0
   20.1840    7.1790  -28.8440 N   0  0  0  0  0  0  0  0  0  0  0  0
   17.2600    3.9560  -25.4650 N   0  0  0  0  0  2  0  0  0  0  0  0
   24.8720    3.1650  -24.3860 N   0  0  0  0  0  2  0  0  0  0  0  0
   23.2660    4.1950  -23.2950 N   0  0  0  0  0  2  0  0  0  0  0  0
   20.9420    5.2560  -24.1730 O   0  0  0  0  0  1  0  0  0  0  0  0
   19.6470    5.0140  -28.8720 O   0  0  0  0  0  1  0  0  0  0  0  0
  1 25  1  0
  1 60  1  0
  1 65  1  0
  2  3  1  0
  2 10  1  0
  2 28  1  0
  2 60  1  0
  3 61  1  0
  3 66  1  0
  4  5  1  0
  4  9  1  0
  4 30  1  0
  4 61  1  0
  5  6  1  0
  5 31  1  0
  5 32  1  0
  6  7  1  0
  6 33  1  0
  6 34  1  0
  7  8  1  0
  7 35  1  0
  7 36  1  0
  8  9  1  0
  8 37  1  0
  8 38  1  0
  9 39  1  0
  9 40  1  0
 10 11  1  0
 10 14  1  0
 11 12  1  0
 11 41  1  0
 12 13  1  0
 12 42  1  0
 13 43  1  0
 13 62  1  0
 14 44  1  0
 14 62  1  0
 15 16  1  0
 15 24  1  0
 15 60  1  0
 16 17  1  0
 16 45  1  0
 17 18  1  0
 17 46  1  0
 18 19  1  0
 18 23  1  0
 19 20  1  0
 19 21  1  0
 19 22  1  0
 20 47  1  0
 20 48  1  0
 20 49  1  0
 21 50  1  0
 21 51  1  0
 21 52  1  0
 22 53  1  0
 22 54  1  0
 22 55  1  0
 23 24  1  0
 23 56  1  0
 24 57  1  0
 25 26  1  0
 25 64  1  0
 26 58  1  0
 26 63  1  0
 27 59  1  0
 27 63  1  0
 27 64  1  0
 29 61  1  0
M  END
$$$$
