8r14_B_XHW_701
     RDKit          3D

 24 26  0  0  0  0  0  0  0  0999 V2000
   13.6970   13.3130   -4.9420 C   0  0  0  0  0  3  0  0  0  0  0  0
   17.4300   10.4230   -0.3480 C   0  0  0  0  0  3  0  0  0  0  0  0
   18.5080   10.4850   -1.2250 C   0  0  0  0  0  2  0  0  0  0  0  0
   19.4570    9.4800   -1.2500 C   0  0  0  0  0  2  0  0  0  0  0  0
   19.3630    8.4140   -0.3730 C   0  0  0  0  0  2  0  0  0  0  0  0
   18.3030    8.3260    0.4980 C   0  0  0  0  0  2  0  0  0  0  0  0
   17.3710    9.3320    0.5010 C   0  0  0  0  0  3  0  0  0  0  0  0
   15.7610   13.6710   -1.1290 C   0  0  0  0  0  2  0  0  0  0  0  0
   15.8640   14.7390   -2.2160 C   0  0  0  0  0  2  0  0  0  0  0  0
   14.7730   14.6260   -3.2640 C   0  0  0  0  0  2  0  0  0  0  0  0
   13.6760   12.2120   -5.9510 C   0  0  0  0  0  3  0  0  0  0  0  0
   12.8390   11.1200   -5.8300 C   0  0  0  0  0  2  0  0  0  0  0  0
   13.3840   10.3380   -7.9230 C   0  0  0  0  0  2  0  0  0  0  0  0
   14.2610   11.3530   -8.0870 C   0  0  0  0  0  3  0  0  0  0  0  0
   14.4050   12.3260   -7.1190 C   0  0  0  0  0  2  0  0  0  0  0  0
   15.7550   12.3910   -3.9130 C   0  0  0  0  0  2  0  0  0  0  0  0
   15.6550   11.7100   -2.5740 C   0  0  0  0  0  2  0  0  0  0  0  0
   16.3920   11.5200   -0.2830 C   0  0  0  0  0  2  0  0  0  0  0  0
   15.0830   11.5450   -9.5930 Cl  0  0  0  0  0  0  0  0  0  0  0  0
   16.0620    9.1820    1.5430 Cl  0  0  0  0  0  0  0  0  0  0  0  0
   12.7130   10.1650   -6.7770 N   0  0  0  0  0  2  0  0  0  0  0  0
   14.7270   13.4050   -4.1030 N   0  0  0  0  0  0  0  0  0  0  0  0
   16.3580   12.3830   -1.4820 N   0  0  0  0  0  0  0  0  0  0  0  0
   12.8210   14.1660   -4.9770 O   0  0  0  0  0  1  0  0  0  0  0  0
  1 11  1  0
  1 22  1  0
  1 24  1  0
  2  3  1  0
  2  7  1  0
  2 18  1  0
  3  4  1  0
  4  5  1  0
  5  6  1  0
  6  7  1  0
  7 20  1  0
  8  9  1  0
  8 23  1  0
  9 10  1  0
 10 22  1  0
 11 12  1  0
 11 15  1  0
 12 21  1  0
 13 14  1  0
 13 21  1  0
 14 15  1  0
 14 19  1  0
 16 17  1  0
 16 22  1  0
 17 23  1  0
 18 23  1  0
M  END
$$$$
