8r16_B_XJ9_401
     RDKit          3D

 22 24  0  0  0  0  0  0  0  0999 V2000
   15.0330   11.4200  -10.2580 C   0  0  0  0  0  1  0  0  0  0  0  0
   14.4880   11.0680   -8.8940 C   0  0  0  0  0  3  0  0  0  0  0  0
   18.0890   11.0620   -3.2360 C   0  0  0  0  0  2  0  0  0  0  0  0
   17.9490   10.8410   -1.7530 C   0  0  0  0  0  3  0  0  0  0  0  0
   18.7400    9.8880   -1.1200 C   0  0  0  0  0  2  0  0  0  0  0  0
   18.7050    9.7420    0.2510 C   0  0  0  0  0  3  0  0  0  0  0  0
   17.8130   10.4820    1.0020 C   0  0  0  0  0  3  0  0  0  0  0  0
   13.3930   10.5000   -6.4580 C   0  0  0  0  0  2  0  0  0  0  0  0
   13.4290   10.1920   -8.7300 C   0  0  0  0  0  2  0  0  0  0  0  0
   14.9630   11.6880   -7.7530 C   0  0  0  0  0  2  0  0  0  0  0  0
   14.4710   11.3590   -6.5010 C   0  0  0  0  0  3  0  0  0  0  0  0
   15.0270   12.0050   -5.2580 C   0  0  0  0  0  2  0  0  0  0  0  0
   16.2700   11.2590   -4.8050 C   0  0  0  0  0  3  0  0  0  0  0  0
   16.5450   12.9870   -3.0100 C   0  0  0  0  0  2  0  0  0  0  0  0
   16.0690   12.5560   -1.6440 C   0  0  0  0  0  2  0  0  0  0  0  0
   17.0140   11.5700   -0.9960 C   0  0  0  0  0  3  0  0  0  0  0  0
   16.9790   11.3930    0.3880 C   0  0  0  0  0  2  0  0  0  0  0  0
   19.6790    8.5120    0.9870 Cl  0  0  0  0  0  0  0  0  0  0  0  0
   17.7850   10.3470    2.7260 Cl  0  0  0  0  0  0  0  0  0  0  0  0
   16.9370   11.7880   -3.7600 N   0  0  0  0  0  0  0  0  0  0  0  0
   12.9190    9.8690   -7.5330 N   0  0  0  0  0  2  0  0  0  0  0  0
   16.6150   10.1980   -5.3310 O   0  0  0  0  0  1  0  0  0  0  0  0
  1  2  1  0
  2  9  1  0
  2 10  1  0
  3  4  1  0
  3 20  1  0
  4  5  1  0
  4 16  1  0
  5  6  1  0
  6  7  1  0
  6 18  1  0
  7 17  1  0
  7 19  1  0
  8 11  1  0
  8 21  1  0
  9 21  1  0
 10 11  1  0
 11 12  1  0
 12 13  1  0
 13 20  1  0
 13 22  1  0
 14 15  1  0
 14 20  1  0
 15 16  1  0
 16 17  1  0
M  END
$$$$
