8r1q_B_O6K_401
     RDKit          3D

 43 46  0  0  0  0  0  0  0  0999 V2000
   -8.4820   -6.0970   17.4030 C   0  0  0  0  0  2  0  0  0  0  0  0
   -9.6420   -5.4760   18.2450 C   0  0  0  0  0  3  0  0  0  0  0  0
  -10.2990   -4.2760   17.8950 C   0  0  0  0  0  2  0  0  0  0  0  0
   -9.7730  -13.0370   23.3160 C   0  0  0  0  0  2  0  0  0  0  0  0
  -10.6130  -13.3860   24.4240 C   0  0  0  0  0  2  0  0  0  0  0  0
  -10.2320  -13.1180   25.6850 C   0  0  0  0  0  2  0  0  0  0  0  0
   -8.9650  -12.4640   26.0440 C   0  0  0  0  0  3  0  0  0  0  0  0
   -7.6000  -12.0480   22.4060 C   0  0  0  0  0  3  0  0  0  0  0  0
   -8.1340  -12.1200   24.9270 C   0  0  0  0  0  3  0  0  0  0  0  0
   -7.8640  -12.8320   21.0780 C   0  0  0  0  0  2  0  0  0  0  0  0
  -11.3360   -3.7450   18.6810 C   0  0  0  0  0  2  0  0  0  0  0  0
   -9.2250  -11.7410   28.4060 C   0  0  0  0  0  3  0  0  0  0  0  0
  -11.7550   -4.3950   19.8470 C   0  0  0  0  0  2  0  0  0  0  0  0
  -11.1290   -5.5760   20.2170 C   0  0  0  0  0  2  0  0  0  0  0  0
   -9.0960  -10.7750   30.6890 C   0  0  0  0  0  0  0  0  0  0  0  0
  -10.0980   -6.0910   19.4200 C   0  0  0  0  0  2  0  0  0  0  0  0
   -7.6340  -14.3290   21.1110 C   0  0  0  0  0  3  0  0  0  0  0  0
   -7.1570  -15.0720   19.8820 C   0  0  0  0  0  2  0  0  0  0  0  0
  -10.0850   -9.6220   30.4050 C   0  0  0  0  0  1  0  0  0  0  0  0
   -9.8270  -11.9560   31.4350 C   0  0  0  0  0  1  0  0  0  0  0  0
   -7.9550  -10.2810   31.5840 C   0  0  0  0  0  1  0  0  0  0  0  0
   -6.2060  -14.8340   21.0170 C   0  0  0  0  0  2  0  0  0  0  0  0
   -6.8630   -7.1470   19.1360 C   0  0  0  0  0  3  0  0  0  0  0  0
   -7.7220  -10.5320   22.1760 C   0  0  0  0  0  3  0  0  0  0  0  0
   -6.6310   -8.4180   21.3900 C   0  0  0  0  0  3  0  0  0  0  0  0
   -5.6350   -7.6540   22.2760 C   0  0  0  0  0  2  0  0  0  0  0  0
   -6.0740   -7.4770   23.7430 C   0  0  0  0  0  3  0  0  0  0  0  0
   -5.1280   -6.7750   24.7400 C   0  0  0  0  0  3  0  0  0  0  0  0
   -7.1710   -5.6590   25.0740 C   0  0  0  0  0  2  0  0  0  0  0  0
   -7.2680   -6.5160   23.7750 C   0  0  0  0  0  2  0  0  0  0  0  0
   -6.2850   -8.3820   19.8190 C   0  0  0  0  0  3  0  0  0  0  0  0
   -8.6020  -12.4580   23.4470 N   0  0  0  0  0  0  0  0  0  0  0  0
   -8.5600  -12.1940   27.2890 N   0  0  0  0  0  2  0  0  0  0  0  0
   -7.8190   -7.2210   18.1230 N   0  0  0  0  0  2  0  0  0  0  0  0
   -6.6450   -9.8200   21.7360 N   0  0  0  0  0  2  0  0  0  0  0  0
   -5.7580   -5.7820   25.4620 N   0  0  0  0  0  2  0  0  0  0  0  0
   -7.0590  -11.5790   24.8970 O   0  0  0  0  0  1  0  0  0  0  0  0
   -8.5180  -11.2530   29.4450 O   0  0  0  0  0  0  0  0  0  0  0  0
  -10.4550  -11.8110   28.3930 O   0  0  0  0  0  1  0  0  0  0  0  0
   -8.8270  -10.0120   22.4060 O   0  0  0  0  0  1  0  0  0  0  0  0
   -6.9890   -9.4470   19.2860 O   0  0  0  0  0  1  0  0  0  0  0  0
   -6.4120   -6.0970   19.5520 O   0  0  0  0  0  1  0  0  0  0  0  0
   -3.9460   -7.0780   24.8670 O   0  0  0  0  0  1  0  0  0  0  0  0
  1  2  1  0
  1 34  1  0
  2  3  1  0
  2 16  1  0
  3 11  1  0
  4  5  1  0
  4 32  1  0
  5  6  1  0
  6  7  1  0
  7  9  1  0
  7 33  1  0
  8 10  1  0
  8 24  1  0
  8 32  1  0
  9 32  1  0
  9 37  1  0
 10 17  1  0
 11 13  1  0
 12 33  1  0
 12 38  1  0
 12 39  1  0
 13 14  1  0
 14 16  1  0
 15 19  1  0
 15 20  1  0
 15 21  1  0
 15 38  1  0
 17 18  1  0
 17 22  1  0
 18 22  1  0
 23 31  1  0
 23 34  1  0
 23 42  1  0
 24 35  1  0
 24 40  1  0
 25 26  1  0
 25 31  1  0
 25 35  1  0
 26 27  1  0
 27 28  1  0
 27 30  1  0
 28 36  1  0
 28 43  1  0
 29 30  1  0
 29 36  1  0
 31 41  1  0
M  END
$$$$
