8r26_C_O6K_401
     RDKit          3D

 43 46  0  0  0  0  0  0  0  0999 V2000
  -40.8540   41.1580  -74.1680 C   0  0  0  0  0  2  0  0  0  0  0  0
  -41.8950   41.7430  -73.1890 C   0  0  0  0  0  3  0  0  0  0  0  0
  -42.5060   40.8610  -72.0820 C   0  0  0  0  0  2  0  0  0  0  0  0
  -41.7400   33.9280  -72.0650 C   0  0  0  0  0  2  0  0  0  0  0  0
  -42.4640   33.2140  -71.0430 C   0  0  0  0  0  2  0  0  0  0  0  0
  -41.7700   32.6410  -69.9030 C   0  0  0  0  0  2  0  0  0  0  0  0
  -40.3770   32.7840  -69.7880 C   0  0  0  0  0  3  0  0  0  0  0  0
  -39.4810   34.7690  -72.8950 C   0  0  0  0  0  3  0  0  0  0  0  0
  -39.6380   33.5150  -70.8340 C   0  0  0  0  0  3  0  0  0  0  0  0
  -40.0120   34.7190  -74.3350 C   0  0  0  0  0  2  0  0  0  0  0  0
  -43.3850   41.3800  -71.2310 C   0  0  0  0  0  2  0  0  0  0  0  0
  -40.1060   31.5900  -67.5230 C   0  0  0  0  0  3  0  0  0  0  0  0
  -43.7780   42.8630  -71.3460 C   0  0  0  0  0  2  0  0  0  0  0  0
  -43.2430   43.6250  -72.2920 C   0  0  0  0  0  2  0  0  0  0  0  0
  -39.4460   30.4820  -65.4130 C   0  0  0  0  0  0  0  0  0  0  0  0
  -42.2300   43.0250  -73.2800 C   0  0  0  0  0  2  0  0  0  0  0  0
  -39.6110   33.3940  -75.0400 C   0  0  0  0  0  3  0  0  0  0  0  0
  -39.4750   33.4700  -76.5760 C   0  0  0  0  0  2  0  0  0  0  0  0
  -40.7950   30.6460  -64.6800 C   0  0  0  0  0  1  0  0  0  0  0  0
  -38.3450   30.6660  -64.3510 C   0  0  0  0  0  1  0  0  0  0  0  0
  -39.3560   29.0830  -66.0750 C   0  0  0  0  0  1  0  0  0  0  0  0
  -38.2170   33.3550  -75.6970 C   0  0  0  0  0  2  0  0  0  0  0  0
  -38.4880   40.7080  -72.9840 C   0  0  0  0  0  3  0  0  0  0  0  0
  -39.5560   36.2100  -72.4130 C   0  0  0  0  0  3  0  0  0  0  0  0
  -38.4560   38.3920  -71.9040 C   0  0  0  0  0  3  0  0  0  0  0  0
  -37.3770   38.6820  -70.8470 C   0  0  0  0  0  2  0  0  0  0  0  0
  -37.6650   37.7490  -69.6130 C   0  0  0  0  0  3  0  0  0  0  0  0
  -36.5300   37.7330  -68.6580 C   0  0  0  0  0  3  0  0  0  0  0  0
  -38.5310   38.4190  -67.4030 C   0  0  0  0  0  2  0  0  0  0  0  0
  -38.9130   38.2450  -68.9240 C   0  0  0  0  0  2  0  0  0  0  0  0
  -38.2880   39.1940  -73.2110 C   0  0  0  0  0  3  0  0  0  0  0  0
  -40.2990   34.0520  -71.9420 N   0  0  0  0  0  0  0  0  0  0  0  0
  -39.5480   32.2530  -68.6970 N   0  0  0  0  0  2  0  0  0  0  0  0
  -39.6260   41.5310  -73.4550 N   0  0  0  0  0  2  0  0  0  0  0  0
  -38.3280   37.0050  -72.3330 N   0  0  0  0  0  2  0  0  0  0  0  0
  -37.0300   38.1280  -67.3320 N   0  0  0  0  0  2  0  0  0  0  0  0
  -38.2590   33.6540  -70.6850 O   0  0  0  0  0  1  0  0  0  0  0  0
  -39.3020   31.5400  -66.3520 O   0  0  0  0  0  0  0  0  0  0  0  0
  -41.1730   31.0790  -67.5980 O   0  0  0  0  0  1  0  0  0  0  0  0
  -40.5960   36.6840  -72.0900 O   0  0  0  0  0  1  0  0  0  0  0  0
  -39.1730   38.7000  -74.1900 O   0  0  0  0  0  1  0  0  0  0  0  0
  -37.6300   41.2800  -72.4020 O   0  0  0  0  0  1  0  0  0  0  0  0
  -35.4090   37.4380  -68.9190 O   0  0  0  0  0  1  0  0  0  0  0  0
  1  2  1  0
  1 34  1  0
  2  3  1  0
  2 16  1  0
  3 11  1  0
  4  5  1  0
  4 32  1  0
  5  6  1  0
  6  7  1  0
  7  9  1  0
  7 33  1  0
  8 10  1  0
  8 24  1  0
  8 32  1  0
  9 32  1  0
  9 37  1  0
 10 17  1  0
 11 13  1  0
 12 33  1  0
 12 38  1  0
 12 39  1  0
 13 14  1  0
 14 16  1  0
 15 19  1  0
 15 20  1  0
 15 21  1  0
 15 38  1  0
 17 18  1  0
 17 22  1  0
 18 22  1  0
 23 31  1  0
 23 34  1  0
 23 42  1  0
 24 35  1  0
 24 40  1  0
 25 26  1  0
 25 31  1  0
 25 35  1  0
 26 27  1  0
 27 28  1  0
 27 30  1  0
 28 36  1  0
 28 43  1  0
 29 30  1  0
 29 36  1  0
 31 41  1  0
M  END
$$$$
