8rjy_A_A05_401
     RDKit          3D

 72 74  0  0  0  0  0  0  0  0999 V2000
    8.0800   -0.0520   19.9520 C   0  0  0  0  0  0  0  0  0  0  0  0
    8.7560   -1.5350   21.8860 C   0  0  0  0  0  3  0  0  0  0  0  0
    9.9690   -0.6290   22.0830 C   0  0  0  0  0  0  0  0  0  0  0  0
   11.0790   -1.3500   22.8620 C   0  0  0  0  0  0  0  0  0  0  0  0
   12.2440   -0.4360   23.1540 C   0  0  0  0  0  3  0  0  0  0  0  0
   12.2320    0.3970   24.2650 C   0  0  0  0  0  3  0  0  0  0  0  0
   13.2760    1.2750   24.5000 C   0  0  0  0  0  3  0  0  0  0  0  0
   14.3470    1.3310   23.6350 C   0  0  0  0  0  3  0  0  0  0  0  0
   14.3740    0.5030   22.5340 C   0  0  0  0  0  3  0  0  0  0  0  0
   13.3310   -0.3760   22.2930 C   0  0  0  0  0  3  0  0  0  0  0  0
    6.8760   -3.1920   19.8520 C   0  0  0  0  0  2  0  0  0  0  0  0
    9.9660    1.7810   22.3960 C   0  0  0  0  0  3  0  0  0  0  0  0
    9.9820    2.9330   23.4200 C   0  0  0  0  0  0  0  0  0  0  0  0
    8.6190    3.6720   23.5320 C   0  0  0  0  0  0  0  0  0  0  0  0
    7.9220    3.6620   22.1700 C   0  0  0  0  0  0  0  0  0  0  0  0
    8.8410    5.1240   23.9570 C   0  0  0  0  0  0  0  0  0  0  0  0
    7.7080    2.9680   24.5540 C   0  0  0  0  0  0  0  0  0  0  0  0
   11.8720    4.3700   23.9520 C   0  0  0  0  0  3  0  0  0  0  0  0
   12.9890    5.1720   23.4180 C   0  0  0  0  0  3  0  0  0  0  0  0
   13.1380    5.7470   22.1600 C   0  0  0  0  0  3  0  0  0  0  0  0
   14.3680    6.4480   22.0400 C   0  0  0  0  0  3  0  0  0  0  0  0
    5.6290   -1.7780   21.4750 C   0  0  0  0  0  0  0  0  0  0  0  0
   15.1070    6.3940   23.1670 C   0  0  0  0  0  3  0  0  0  0  0  0
    5.1930   -0.3540   21.2190 C   0  0  0  0  0  3  0  0  0  0  0  0
    4.6520    0.0070   19.9920 C   0  0  0  0  0  3  0  0  0  0  0  0
    4.2760    1.3140   19.7290 C   0  0  0  0  0  3  0  0  0  0  0  0
    4.4450    2.2640   20.7090 C   0  0  0  0  0  3  0  0  0  0  0  0
    4.9670    1.9420   21.9410 C   0  0  0  0  0  3  0  0  0  0  0  0
    5.3400    0.6300   22.1870 C   0  0  0  0  0  3  0  0  0  0  0  0
    3.9970    3.9180   20.3800 Cl  0  0  0  0  0  0  0  0  0  0  0  0
   10.3710   -0.3670   21.1060 H   0  0  0  0  0  0  0  0  0  0  0  0
   10.1730    2.5060   24.4030 H   0  0  0  0  0  0  0  0  0  0  0  0
    3.8540    1.5860   18.7620 H   0  0  0  0  0  0  0  0  0  0  0  0
    5.0840    2.7100   22.7050 H   0  0  0  0  0  0  0  0  0  0  0  0
    5.7550    0.3680   23.1590 H   0  0  0  0  0  0  0  0  0  0  0  0
    7.2690    0.0970   19.2410 H   0  0  0  0  0  0  0  0  0  0  0  0
    8.1280    0.9000   20.4780 H   0  0  0  0  0  0  0  0  0  0  0  0
    8.9680   -0.0330   19.3220 H   0  0  0  0  0  0  0  0  0  0  0  0
   11.4170   -2.2240   22.3070 H   0  0  0  0  0  0  0  0  0  0  0  0
   10.6800   -1.7590   23.7890 H   0  0  0  0  0  0  0  0  0  0  0  0
   11.3960    0.3660   24.9630 H   0  0  0  0  0  0  0  0  0  0  0  0
   13.2460    1.9230   25.3750 H   0  0  0  0  0  0  0  0  0  0  0  0
   15.1650    2.0250   23.8210 H   0  0  0  0  0  0  0  0  0  0  0  0
   15.2180    0.5380   21.8480 H   0  0  0  0  0  0  0  0  0  0  0  0
   13.3700   -1.0230   21.4180 H   0  0  0  0  0  0  0  0  0  0  0  0
    8.9420    0.4490   23.5870 H   0  0  0  0  0  0  0  0  0  0  0  0
    7.5700    2.6670   21.8990 H   0  0  0  0  0  0  0  0  0  0  0  0
    8.5850    3.9900   21.3700 H   0  0  0  0  0  0  0  0  0  0  0  0
    7.0550    4.3200   22.1500 H   0  0  0  0  0  0  0  0  0  0  0  0
    7.9010    5.6510   24.1090 H   0  0  0  0  0  0  0  0  0  0  0  0
    9.3990    5.1930   24.8900 H   0  0  0  0  0  0  0  0  0  0  0  0
    9.4020    5.6850   23.2110 H   0  0  0  0  0  0  0  0  0  0  0  0
    6.7320    3.4340   24.6850 H   0  0  0  0  0  0  0  0  0  0  0  0
    7.4750    1.9320   24.3140 H   0  0  0  0  0  0  0  0  0  0  0  0
    8.1140    2.9200   25.5630 H   0  0  0  0  0  0  0  0  0  0  0  0
   11.2020    4.0200   22.0510 H   0  0  0  0  0  0  0  0  0  0  0  0
   12.4070    5.6740   21.3570 H   0  0  0  0  0  0  0  0  0  0  0  0
   14.6610    6.9660   21.1280 H   0  0  0  0  0  0  0  0  0  0  0  0
   16.0830    6.8480   23.3280 H   0  0  0  0  0  0  0  0  0  0  0  0
    5.3940   -4.2320   20.6550 H   0  0  0  0  0  0  0  0  0  0  0  0
    4.8150   -2.4520   21.2110 H   0  0  0  0  0  0  0  0  0  0  0  0
    5.7670   -1.9210   22.5460 H   0  0  0  0  0  0  0  0  0  0  0  0
    4.5140   -0.7390   19.2120 H   0  0  0  0  0  0  0  0  0  0  0  0
    6.8540   -2.1440   20.7480 N   0  0  0  0  0  0  0  0  0  0  0  0
    7.9460   -1.2520   20.8230 N   0  0  0  0  0  0  0  0  0  0  0  0
    9.5550    0.5720   22.7880 N   0  0  0  0  0  0  0  0  0  0  0  0
   11.0640    3.8200   23.0360 N   0  0  0  0  0  0  0  0  0  0  0  0
    6.0840   -4.1810   19.9120 N   0  0  0  0  0  2  0  0  0  0  0  0
   11.7110    4.2390   25.1670 O   0  0  0  0  0  1  0  0  0  0  0  0
   10.3200    2.0280   21.2460 O   0  0  0  0  0  1  0  0  0  0  0  0
    8.5380   -2.4600   22.6490 O   0  0  0  0  0  1  0  0  0  0  0  0
   14.3500    5.5030   24.4070 S   0  0  0  0  0  0  0  0  0  0  0  0
  1 36  1  0
  1 37  1  0
  1 38  1  0
  1 65  1  0
  2  3  1  0
  2 65  1  0
  2 71  1  0
  3  4  1  0
  3 31  1  0
  3 66  1  0
  4  5  1  0
  4 39  1  0
  4 40  1  0
  5  6  1  0
  5 10  1  0
  6  7  1  0
  6 41  1  0
  7  8  1  0
  7 42  1  0
  8  9  1  0
  8 43  1  0
  9 10  1  0
  9 44  1  0
 10 45  1  0
 11 64  1  0
 11 68  1  0
 12 13  1  0
 12 66  1  0
 12 70  1  0
 13 14  1  0
 13 32  1  0
 13 67  1  0
 14 15  1  0
 14 16  1  0
 14 17  1  0
 15 47  1  0
 15 48  1  0
 15 49  1  0
 16 50  1  0
 16 51  1  0
 16 52  1  0
 17 53  1  0
 17 54  1  0
 17 55  1  0
 18 19  1  0
 18 67  1  0
 18 69  1  0
 19 20  1  0
 19 72  1  0
 20 21  1  0
 20 57  1  0
 21 23  1  0
 21 58  1  0
 22 24  1  0
 22 61  1  0
 22 62  1  0
 22 64  1  0
 23 59  1  0
 23 72  1  0
 24 25  1  0
 24 29  1  0
 25 26  1  0
 25 63  1  0
 26 27  1  0
 26 33  1  0
 27 28  1  0
 27 30  1  0
 28 29  1  0
 28 34  1  0
 29 35  1  0
 46 66  1  0
 56 67  1  0
 60 68  1  0
 64 65  1  0
M  END
$$$$
