8tqh_A_JX6_401
     RDKit          3D

 30 31  0  0  0  0  0  0  0  0999 V2000
  -10.5290  -18.8370  -18.7580 C   0  0  0  0  0  2  0  0  0  0  0  0
   -6.0120  -12.2220  -19.1300 C   0  0  0  0  0  1  0  0  0  0  0  0
   -6.1230  -14.6200  -18.5500 C   0  0  0  0  0  1  0  0  0  0  0  0
   -9.7730  -16.5050  -18.2680 C   0  0  0  0  0  3  0  0  0  0  0  0
   -6.5550  -12.9040  -16.8080 C   0  0  0  0  0  1  0  0  0  0  0  0
   -9.1240  -14.2160  -17.9530 C   0  0  0  0  0  3  0  0  0  0  0  0
  -10.5290  -13.6800  -17.9900 C   0  0  0  0  0  3  0  0  0  0  0  0
  -12.3970  -12.6430  -16.8480 C   0  0  0  0  0  3  0  0  0  0  0  0
  -13.2350  -13.4090  -15.8090 C   0  0  0  0  0  2  0  0  0  0  0  0
  -11.9680  -18.7010  -19.2180 C   0  0  0  0  0  3  0  0  0  0  0  0
  -13.4120  -14.8470  -16.2950 C   0  0  0  0  0  3  0  0  0  0  0  0
  -14.3010  -14.9450  -17.5310 C   0  0  0  0  0  2  0  0  0  0  0  0
  -15.0670  -16.2560  -17.3320 C   0  0  0  0  0  2  0  0  0  0  0  0
  -14.1040  -15.7390  -15.3040 C   0  0  0  0  0  3  0  0  0  0  0  0
  -12.8910  -19.6970  -18.8980 C   0  0  0  0  0  2  0  0  0  0  0  0
   -8.2200  -13.2070  -18.6610 C   0  0  0  0  0  2  0  0  0  0  0  0
  -14.2110  -19.5790  -19.3250 C   0  0  0  0  0  2  0  0  0  0  0  0
  -14.6050  -18.4650  -20.0580 C   0  0  0  0  0  2  0  0  0  0  0  0
  -13.6850  -17.4750  -20.3920 C   0  0  0  0  0  2  0  0  0  0  0  0
  -12.3670  -17.5960  -19.9660 C   0  0  0  0  0  2  0  0  0  0  0  0
  -12.3480  -11.1500  -16.5230 C   0  0  0  0  0  2  0  0  0  0  0  0
   -6.7390  -13.2580  -18.2830 C   0  0  0  0  0  0  0  0  0  0  0  0
   -9.0990  -15.4480  -18.7150 N   0  0  0  0  0  2  0  0  0  0  0  0
  -11.0350  -13.1570  -16.8780 N   0  0  0  0  0  2  0  0  0  0  0  0
  -14.9690  -16.5480  -15.9140 N   0  0  0  0  0  2  0  0  0  0  0  0
   -9.7660  -17.6790  -19.1100 O   0  0  0  0  0  0  0  0  0  0  0  0
  -13.8720  -15.7160  -14.1190 O   0  0  0  0  0  1  0  0  0  0  0  0
  -10.3720  -16.5240  -17.1980 O   0  0  0  0  0  1  0  0  0  0  0  0
  -11.1690  -13.7450  -19.0330 O   0  0  0  0  0  1  0  0  0  0  0  0
  -13.6590  -10.5670  -16.7000 O   0  0  0  0  0  1  0  0  0  0  0  0
  1 10  1  0
  1 26  1  0
  2 22  1  0
  3 22  1  0
  4 23  1  0
  4 26  1  0
  4 28  1  0
  5 22  1  0
  6  7  1  0
  6 16  1  0
  6 23  1  0
  7 24  1  0
  7 29  1  0
  8  9  1  0
  8 21  1  0
  8 24  1  0
  9 11  1  0
 10 15  1  0
 10 20  1  0
 11 12  1  0
 11 14  1  0
 12 13  1  0
 13 25  1  0
 14 25  1  0
 14 27  1  0
 15 17  1  0
 16 22  1  0
 17 18  1  0
 18 19  1  0
 19 20  1  0
 21 30  1  0
M  END
$$$$
