8ty3_A_SJF_401
     RDKit          3D

 33 36  0  0  0  0  0  0  0  0999 V2000
   -6.0800  -14.3020  -18.0930 C   0  0  0  0  0  2  0  0  0  0  0  0
   -6.1600  -13.1020  -17.1550 C   0  0  0  0  0  2  0  0  0  0  0  0
   -9.5200  -17.7050  -18.6730 C   0  0  0  0  0  2  0  0  0  0  0  0
   -9.6990  -16.4090  -17.9050 C   0  0  0  0  0  3  0  0  0  0  0  0
   -7.9100  -15.4410  -19.3320 C   0  0  0  0  0  2  0  0  0  0  0  0
   -9.1200  -14.0600  -17.6960 C   0  0  0  0  0  3  0  0  0  0  0  0
  -10.5280  -13.5390  -17.8310 C   0  0  0  0  0  3  0  0  0  0  0  0
   -7.1820  -14.1350  -19.1320 C   0  0  0  0  0  3  0  0  0  0  0  0
  -12.4190  -12.4320  -16.7830 C   0  0  0  0  0  3  0  0  0  0  0  0
  -13.3010  -13.2030  -15.7820 C   0  0  0  0  0  2  0  0  0  0  0  0
   -7.3680  -12.2840  -17.6120 C   0  0  0  0  0  2  0  0  0  0  0  0
  -13.4550  -14.6600  -16.2130 C   0  0  0  0  0  3  0  0  0  0  0  0
  -14.2880  -14.7970  -17.4800 C   0  0  0  0  0  2  0  0  0  0  0  0
  -15.0850  -16.0840  -17.2840 C   0  0  0  0  0  2  0  0  0  0  0  0
  -14.2300  -15.4860  -15.2290 C   0  0  0  0  0  3  0  0  0  0  0  0
  -11.8280  -18.5000  -18.9010 C   0  0  0  0  0  3  0  0  0  0  0  0
   -8.1770  -13.1920  -18.5150 C   0  0  0  0  0  3  0  0  0  0  0  0
  -12.7950  -19.4950  -18.7470 C   0  0  0  0  0  2  0  0  0  0  0  0
  -14.0650  -19.3340  -19.3010 C   0  0  0  0  0  2  0  0  0  0  0  0
  -14.3600  -18.1690  -20.0220 C   0  0  0  0  0  3  0  0  0  0  0  0
  -13.3910  -17.1920  -20.1730 C   0  0  0  0  0  3  0  0  0  0  0  0
  -12.3820  -10.9390  -16.4400 C   0  0  0  0  0  2  0  0  0  0  0  0
  -12.1370  -17.3510  -19.6140 C   0  0  0  0  0  2  0  0  0  0  0  0
  -13.7240  -15.6780  -21.0710 Cl  0  0  0  0  0  0  0  0  0  0  0  0
  -15.9810  -17.9210  -20.7650 Cl  0  0  0  0  0  0  0  0  0  0  0  0
   -8.9460  -15.3880  -18.3010 N   0  0  0  0  0  0  0  0  0  0  0  0
  -11.0520  -12.9380  -16.7670 N   0  0  0  0  0  2  0  0  0  0  0  0
  -15.0520  -16.3260  -15.8540 N   0  0  0  0  0  2  0  0  0  0  0  0
  -10.5700  -18.6350  -18.3630 O   0  0  0  0  0  0  0  0  0  0  0  0
  -14.1080  -15.3620  -14.0230 O   0  0  0  0  0  1  0  0  0  0  0  0
  -10.5030  -16.3090  -16.9910 O   0  0  0  0  0  1  0  0  0  0  0  0
  -11.1320  -13.6670  -18.8850 O   0  0  0  0  0  1  0  0  0  0  0  0
  -13.6800  -10.3470  -16.6310 O   0  0  0  0  0  1  0  0  0  0  0  0
  1  2  1  0
  1  8  1  0
  2 11  1  0
  3  4  1  0
  3 29  1  0
  4 26  1  0
  4 31  1  0
  5  8  1  0
  5 26  1  0
  6  7  1  0
  6 17  1  0
  6 26  1  0
  7 27  1  0
  7 32  1  0
  8 17  1  0
  9 10  1  0
  9 22  1  0
  9 27  1  0
 10 12  1  0
 11 17  1  0
 12 13  1  0
 12 15  1  0
 13 14  1  0
 14 28  1  0
 15 28  1  0
 15 30  1  0
 16 18  1  0
 16 23  1  0
 16 29  1  0
 18 19  1  0
 19 20  1  0
 20 21  1  0
 20 25  1  0
 21 23  1  0
 21 24  1  0
 22 33  1  0
M  END
$$$$
