8ty5_A_SQ3_401
     RDKit          3D

 33 36  0  0  0  0  0  0  0  0999 V2000
   -9.0110  -17.2600  -18.3130 C   0  0  0  0  0  2  0  0  0  0  0  0
   -9.5050  -15.9390  -17.7930 C   0  0  0  0  0  3  0  0  0  0  0  0
   -7.9110  -14.8530  -19.3750 C   0  0  0  0  0  2  0  0  0  0  0  0
   -9.0560  -13.5600  -17.6540 C   0  0  0  0  0  3  0  0  0  0  0  0
  -10.4730  -13.0860  -17.8450 C   0  0  0  0  0  3  0  0  0  0  0  0
   -7.2860  -13.4530  -19.3890 C   0  0  0  0  0  3  0  0  0  0  0  0
  -12.4550  -12.0720  -16.8840 C   0  0  0  0  0  3  0  0  0  0  0  0
   -6.5920  -12.9180  -18.0950 C   0  0  0  0  0  0  0  0  0  0  0  0
  -13.3730  -12.8680  -15.9180 C   0  0  0  0  0  2  0  0  0  0  0  0
  -13.5070  -14.3280  -16.3750 C   0  0  0  0  0  3  0  0  0  0  0  0
  -14.3220  -14.5200  -17.6570 C   0  0  0  0  0  2  0  0  0  0  0  0
  -15.0660  -15.8440  -17.4480 C   0  0  0  0  0  2  0  0  0  0  0  0
   -5.5550  -12.0350  -18.8010 C   0  0  0  0  0  1  0  0  0  0  0  0
  -14.2230  -15.2030  -15.3850 C   0  0  0  0  0  3  0  0  0  0  0  0
   -5.9790  -14.2570  -17.6390 C   0  0  0  0  0  1  0  0  0  0  0  0
  -10.8450  -18.7830  -18.7410 C   0  0  0  0  0  3  0  0  0  0  0  0
   -8.0930  -12.6510  -18.4210 C   0  0  0  0  0  3  0  0  0  0  0  0
  -10.2830  -19.8790  -18.1010 C   0  0  0  0  0  2  0  0  0  0  0  0
  -11.0920  -20.9140  -17.6590 C   0  0  0  0  0  2  0  0  0  0  0  0
  -12.4670  -20.8890  -17.8930 C   0  0  0  0  0  3  0  0  0  0  0  0
  -13.0300  -19.7900  -18.5730 C   0  0  0  0  0  2  0  0  0  0  0  0
  -12.4240  -10.5730  -16.5530 C   0  0  0  0  0  2  0  0  0  0  0  0
  -12.2160  -18.7340  -18.9930 C   0  0  0  0  0  3  0  0  0  0  0  0
  -12.9020  -17.3090  -19.8620 Cl  0  0  0  0  0  0  0  0  0  0  0  0
  -13.4460  -22.3080  -17.2880 Cl  0  0  0  0  0  0  0  0  0  0  0  0
   -8.8670  -14.8670  -18.2610 N   0  0  0  0  0  0  0  0  0  0  0  0
  -11.0780  -12.5420  -16.7950 N   0  0  0  0  0  2  0  0  0  0  0  0
  -15.0310  -16.0680  -16.0070 N   0  0  0  0  0  2  0  0  0  0  0  0
  -10.0280  -17.7730  -19.1530 O   0  0  0  0  0  0  0  0  0  0  0  0
  -14.0480  -15.1080  -14.1810 O   0  0  0  0  0  1  0  0  0  0  0  0
  -10.4260  -15.8980  -16.9990 O   0  0  0  0  0  1  0  0  0  0  0  0
  -11.0280  -13.2130  -18.9260 O   0  0  0  0  0  1  0  0  0  0  0  0
  -13.7310   -9.9700  -16.6840 O   0  0  0  0  0  1  0  0  0  0  0  0
  1  2  1  0
  1 29  1  0
  2 26  1  0
  2 31  1  0
  3  6  1  0
  3 26  1  0
  4  5  1  0
  4 17  1  0
  4 26  1  0
  5 27  1  0
  5 32  1  0
  6  8  1  0
  6 17  1  0
  7  9  1  0
  7 22  1  0
  7 27  1  0
  8 13  1  0
  8 15  1  0
  8 17  1  0
  9 10  1  0
 10 11  1  0
 10 14  1  0
 11 12  1  0
 12 28  1  0
 14 28  1  0
 14 30  1  0
 16 18  1  0
 16 23  1  0
 16 29  1  0
 18 19  1  0
 19 20  1  0
 20 21  1  0
 20 25  1  0
 21 23  1  0
 22 33  1  0
 23 24  1  0
M  END
$$$$
