8w1t_A_A06_406
     RDKit          3D

 29 32  0  0  0  0  0  0  0  0999 V2000
  -16.4860   -1.3960    5.5260 Br  0  0  0  0  0  0  0  0  0  0  0  0
  -19.4620    2.2220   -2.4410 C   0  0  0  0  0  3  0  0  0  0  0  0
  -19.0020   -0.0260   -5.4780 C   0  0  0  0  0  2  0  0  0  0  0  0
  -17.7290    0.3000   -5.8850 C   0  0  0  0  0  2  0  0  0  0  0  0
  -17.0090    1.2420   -5.1910 C   0  0  0  0  0  2  0  0  0  0  0  0
  -17.5650    1.8680   -4.0850 C   0  0  0  0  0  2  0  0  0  0  0  0
  -19.0200    3.4320   -0.3780 C   0  0  0  0  0  2  0  0  0  0  0  0
  -17.9250    3.9990    0.4960 C   0  0  0  0  0  2  0  0  0  0  0  0
  -16.6310    1.9680    0.0230 C   0  0  0  0  0  2  0  0  0  0  0  0
  -20.3110    3.4030   -2.8800 C   0  0  0  0  0  3  0  0  0  0  0  0
  -17.7790    1.5020   -0.8430 C   0  0  0  0  0  2  0  0  0  0  0  0
  -16.7640    2.9040    2.3380 C   0  0  0  0  0  3  0  0  0  0  0  0
  -15.9560    1.7600    2.8860 C   0  0  0  0  0  3  0  0  0  0  0  0
  -14.6290    1.5510    2.5350 C   0  0  0  0  0  2  0  0  0  0  0  0
  -14.4540   -0.2970    3.8820 C   0  0  0  0  0  2  0  0  0  0  0  0
  -15.7600   -0.1660    4.2890 C   0  0  0  0  0  3  0  0  0  0  0  0
  -16.5270    0.8670    3.7970 C   0  0  0  0  0  2  0  0  0  0  0  0
  -19.7260    4.5270   -3.4510 C   0  0  0  0  0  2  0  0  0  0  0  0
  -20.4950    5.6030   -3.8280 C   0  0  0  0  0  2  0  0  0  0  0  0
  -21.8520    5.5510   -3.6270 C   0  0  0  0  0  3  0  0  0  0  0  0
  -22.4570    4.4590   -3.0580 C   0  0  0  0  0  2  0  0  0  0  0  0
  -21.6850    3.3880   -2.6820 C   0  0  0  0  0  2  0  0  0  0  0  0
  -18.8450    1.5480   -3.6590 C   0  0  0  0  0  3  0  0  0  0  0  0
  -19.5580    0.5960   -4.3710 C   0  0  0  0  0  2  0  0  0  0  0  0
  -22.8340    6.9060   -4.0950 Cl  0  0  0  0  0  0  0  0  0  0  0  0
  -18.4390    2.6490   -1.4660 N   0  0  0  0  0  0  0  0  0  0  0  0
  -17.0850    2.9250    1.0330 N   0  0  0  0  0  0  0  0  0  0  0  0
  -13.8890    0.5380    3.0140 N   0  0  0  0  0  2  0  0  0  0  0  0
  -17.1050    3.8070    3.0970 O   0  0  0  0  0  1  0  0  0  0  0  0
  1 16  1  0
  2 10  1  0
  2 23  1  0
  2 26  1  0
  3  4  1  0
  3 24  1  0
  4  5  1  0
  5  6  1  0
  6 23  1  0
  7  8  1  0
  7 26  1  0
  8 27  1  0
  9 11  1  0
  9 27  1  0
 10 18  1  0
 10 22  1  0
 11 26  1  0
 12 13  1  0
 12 27  1  0
 12 29  1  0
 13 14  1  0
 13 17  1  0
 14 28  1  0
 15 16  1  0
 15 28  1  0
 16 17  1  0
 18 19  1  0
 19 20  1  0
 20 21  1  0
 20 25  1  0
 21 22  1  0
 23 24  1  0
M  END
$$$$
