8w1t_B_A06_406
     RDKit          3D

 29 32  0  0  0  0  0  0  0  0999 V2000
   20.6790   -3.6370   20.4940 Br  0  0  0  0  0  0  0  0  0  0  0  0
   24.4310    0.5510   27.7600 C   0  0  0  0  0  3  0  0  0  0  0  0
   23.5320   -0.9930   31.1220 C   0  0  0  0  0  2  0  0  0  0  0  0
   22.4450   -0.2380   31.5000 C   0  0  0  0  0  2  0  0  0  0  0  0
   21.9940    0.7700   30.6800 C   0  0  0  0  0  2  0  0  0  0  0  0
   22.6300    1.0250   29.4740 C   0  0  0  0  0  2  0  0  0  0  0  0
   24.1510    1.5450   25.5530 C   0  0  0  0  0  2  0  0  0  0  0  0
   23.1310    2.1320   24.6050 C   0  0  0  0  0  2  0  0  0  0  0  0
   21.6190    0.3080   25.2870 C   0  0  0  0  0  2  0  0  0  0  0  0
   25.5200    1.5880   27.9770 C   0  0  0  0  0  3  0  0  0  0  0  0
   22.7110   -0.1660   26.2180 C   0  0  0  0  0  2  0  0  0  0  0  0
   21.7550    1.0200   22.9140 C   0  0  0  0  0  3  0  0  0  0  0  0
   20.7490   -0.0320   22.5470 C   0  0  0  0  0  3  0  0  0  0  0  0
   19.4100    0.0680   22.9040 C   0  0  0  0  0  2  0  0  0  0  0  0
   18.8900   -1.9190   21.8780 C   0  0  0  0  0  2  0  0  0  0  0  0
   20.1930   -2.0990   21.4810 C   0  0  0  0  0  3  0  0  0  0  0  0
   21.1390   -1.1540   21.8120 C   0  0  0  0  0  2  0  0  0  0  0  0
   25.2070    2.8870   28.3610 C   0  0  0  0  0  2  0  0  0  0  0  0
   26.1990    3.8210   28.5520 C   0  0  0  0  0  2  0  0  0  0  0  0
   27.5050    3.4450   28.3590 C   0  0  0  0  0  3  0  0  0  0  0  0
   27.8470    2.1700   27.9880 C   0  0  0  0  0  2  0  0  0  0  0  0
   26.8540    1.2430   27.7980 C   0  0  0  0  0  2  0  0  0  0  0  0
   23.7260    0.2730   29.0790 C   0  0  0  0  0  3  0  0  0  0  0  0
   24.1690   -0.7400   29.9170 C   0  0  0  0  0  2  0  0  0  0  0  0
   28.7670    4.6130   28.6050 Cl  0  0  0  0  0  0  0  0  0  0  0  0
   23.4780    0.9720   26.7150 N   0  0  0  0  0  0  0  0  0  0  0  0
   22.1500    1.1260   24.1950 N   0  0  0  0  0  0  0  0  0  0  0  0
   18.4950   -0.8580   22.5850 N   0  0  0  0  0  2  0  0  0  0  0  0
   22.1890    1.7600   22.0370 O   0  0  0  0  0  1  0  0  0  0  0  0
  1 16  1  0
  2 10  1  0
  2 23  1  0
  2 26  1  0
  3  4  1  0
  3 24  1  0
  4  5  1  0
  5  6  1  0
  6 23  1  0
  7  8  1  0
  7 26  1  0
  8 27  1  0
  9 11  1  0
  9 27  1  0
 10 18  1  0
 10 22  1  0
 11 26  1  0
 12 13  1  0
 12 27  1  0
 12 29  1  0
 13 14  1  0
 13 17  1  0
 14 28  1  0
 15 16  1  0
 15 28  1  0
 16 17  1  0
 18 19  1  0
 19 20  1  0
 20 21  1  0
 20 25  1  0
 21 22  1  0
 23 24  1  0
M  END
$$$$
