8w1t_B_A07_405
     RDKit          3D

 29 32  0  0  0  0  0  0  0  0999 V2000
   20.6400   -3.6640   20.5120 Br  0  0  0  0  0  0  0  0  0  0  0  0
   24.5810    0.7680   27.6570 C   0  0  0  0  0  3  0  0  0  0  0  0
   27.7820    2.7980   27.9940 C   0  0  0  0  0  2  0  0  0  0  0  0
   27.3080    4.0070   28.4440 C   0  0  0  0  0  2  0  0  0  0  0  0
   25.9590    4.1800   28.6480 C   0  0  0  0  0  2  0  0  0  0  0  0
   25.0780    3.1400   28.3960 C   0  0  0  0  0  2  0  0  0  0  0  0
   24.1820    1.7410   25.4540 C   0  0  0  0  0  2  0  0  0  0  0  0
   23.0950    2.2520   24.5360 C   0  0  0  0  0  2  0  0  0  0  0  0
   21.7090    0.3580   25.2700 C   0  0  0  0  0  2  0  0  0  0  0  0
   23.8840    0.3190   28.9310 C   0  0  0  0  0  3  0  0  0  0  0  0
   22.8550   -0.0550   26.1650 C   0  0  0  0  0  2  0  0  0  0  0  0
   21.8300    0.9870   22.8670 C   0  0  0  0  0  3  0  0  0  0  0  0
   20.7920   -0.0460   22.5330 C   0  0  0  0  0  3  0  0  0  0  0  0
   19.4620    0.0710   22.9180 C   0  0  0  0  0  2  0  0  0  0  0  0
   18.8970   -1.9180   21.9200 C   0  0  0  0  0  2  0  0  0  0  0  0
   20.1890   -2.1160   21.4980 C   0  0  0  0  0  3  0  0  0  0  0  0
   21.1520   -1.1790   21.8010 C   0  0  0  0  0  2  0  0  0  0  0  0
   24.3660   -0.7550   29.6690 C   0  0  0  0  0  2  0  0  0  0  0  0
   23.7200   -1.1630   30.8170 C   0  0  0  0  0  2  0  0  0  0  0  0
   22.5900   -0.4940   31.2190 C   0  0  0  0  0  3  0  0  0  0  0  0
   22.0880    0.5660   30.5090 C   0  0  0  0  0  2  0  0  0  0  0  0
   22.7350    0.9670   29.3660 C   0  0  0  0  0  2  0  0  0  0  0  0
   25.5410    1.9140   27.9400 C   0  0  0  0  0  3  0  0  0  0  0  0
   26.9040    1.7550   27.7430 C   0  0  0  0  0  2  0  0  0  0  0  0
   21.7650   -1.0040   32.6620 Cl  0  0  0  0  0  0  0  0  0  0  0  0
   23.5800    1.1250   26.6330 N   0  0  0  0  0  0  0  0  0  0  0  0
   22.1790    1.1760   24.1510 N   0  0  0  0  0  0  0  0  0  0  0  0
   18.5300   -0.8450   22.6220 N   0  0  0  0  0  2  0  0  0  0  0  0
   22.3450    1.6270   21.9550 O   0  0  0  0  0  1  0  0  0  0  0  0
  1 16  1  0
  2 10  1  0
  2 23  1  0
  2 26  1  0
  3  4  1  0
  3 24  1  0
  4  5  1  0
  5  6  1  0
  6 23  1  0
  7  8  1  0
  7 26  1  0
  8 27  1  0
  9 11  1  0
  9 27  1  0
 10 18  1  0
 10 22  1  0
 11 26  1  0
 12 13  1  0
 12 27  1  0
 12 29  1  0
 13 14  1  0
 13 17  1  0
 14 28  1  0
 15 16  1  0
 15 28  1  0
 16 17  1  0
 18 19  1  0
 19 20  1  0
 20 21  1  0
 20 25  1  0
 21 22  1  0
 23 24  1  0
M  END
$$$$
