8w1u_A_A08_401
     RDKit          3D

 34 39  0  0  0  0  0  0  0  0999 V2000
   -1.8020    1.3090   17.9420 C   0  0  0  0  0  3  0  0  0  0  0  0
   -3.6840    2.1110   16.4230 C   0  0  0  0  0  2  0  0  0  0  0  0
   -3.6250    2.6180   15.0000 C   0  0  0  0  0  2  0  0  0  0  0  0
   -3.3180    1.5790   13.9630 C   0  0  0  0  0  3  0  0  0  0  0  0
   -2.1510    0.7330   14.3990 C   0  0  0  0  0  2  0  0  0  0  0  0
   -2.4840    0.0780   15.7440 C   0  0  0  0  0  2  0  0  0  0  0  0
   -4.0110    1.4740   12.8480 C   0  0  0  0  0  3  0  0  0  0  0  0
   -5.2100    2.4360   12.6180 C   0  0  0  0  0  3  0  0  0  0  0  0
   -4.9630    3.7460   12.1420 C   0  0  0  0  0  2  0  0  0  0  0  0
   -6.0490    4.5990   11.9500 C   0  0  0  0  0  2  0  0  0  0  0  0
   -7.3540    4.1700   12.2200 C   0  0  0  0  0  2  0  0  0  0  0  0
   -7.5870    2.8830   12.6910 C   0  0  0  0  0  2  0  0  0  0  0  0
   -6.4880    2.0120   12.8910 C   0  0  0  0  0  3  0  0  0  0  0  0
   -6.7570    0.5870   13.4080 C   0  0  0  0  0  2  0  0  0  0  0  0
   -4.5790   -0.5770   11.4450 C   0  0  0  0  0  3  0  0  0  0  0  0
   -4.2650   -1.5180   10.4490 C   0  0  0  0  0  2  0  0  0  0  0  0
   -3.0390   -1.4380    9.7800 C   0  0  0  0  0  2  0  0  0  0  0  0
   -2.1330   -0.4240   10.1010 C   0  0  0  0  0  2  0  0  0  0  0  0
   -2.4450    0.5070   11.0810 C   0  0  0  0  0  2  0  0  0  0  0  0
   -3.6820    0.4150   11.7690 C   0  0  0  0  0  3  0  0  0  0  0  0
   -0.7290    0.2700   18.2710 C   0  0  0  0  0  3  0  0  0  0  0  0
   -1.1580   -0.9000   18.9530 C   0  0  0  0  0  3  0  0  0  0  0  0
   -2.2590   -2.5140   19.9890 C   0  0  0  0  0  2  0  0  0  0  0  0
   -0.9210   -2.8780   19.9250 C   0  0  0  0  0  2  0  0  0  0  0  0
   -0.2250   -1.8460   19.2650 C   0  0  0  0  0  3  0  0  0  0  0  0
    1.1200   -1.6120   18.8910 C   0  0  0  0  0  2  0  0  0  0  0  0
    0.6010    0.4430   17.9340 C   0  0  0  0  0  2  0  0  0  0  0  0
   -2.6250    1.1510   16.7490 N   0  0  0  0  0  0  0  0  0  0  0  0
   -2.3890   -1.3200   19.4000 N   0  0  0  0  0  2  0  0  0  0  0  0
    1.4690   -0.5050   18.2580 N   0  0  0  0  0  2  0  0  0  0  0  0
   -2.0020    2.2220   18.6620 O   0  0  0  0  0  1  0  0  0  0  0  0
   -6.1110   -1.9540   13.0740 O   0  0  0  0  0  1  0  0  0  0  0  0
   -7.1820   -0.8390   11.2190 O   0  0  0  0  0  1  0  0  0  0  0  0
   -6.1890   -0.7210   12.2890 S   0  0  0  0  0  4  0  0  0  0  0  0
  1 21  1  0
  1 28  1  0
  1 31  1  0
  2  3  1  0
  2 28  1  0
  3  4  1  0
  4  5  1  0
  4  7  1  0
  5  6  1  0
  6 28  1  0
  7  8  1  0
  7 20  1  0
  8  9  1  0
  8 13  1  0
  9 10  1  0
 10 11  1  0
 11 12  1  0
 12 13  1  0
 13 14  1  0
 14 34  1  0
 15 16  1  0
 15 20  1  0
 15 34  1  0
 16 17  1  0
 17 18  1  0
 18 19  1  0
 19 20  1  0
 21 22  1  0
 21 27  1  0
 22 25  1  0
 22 29  1  0
 23 24  1  0
 23 29  1  0
 24 25  1  0
 25 26  1  0
 26 30  1  0
 27 30  1  0
 32 34  1  0
 33 34  1  0
M  END
$$$$
