8w1u_B_A08_401
     RDKit          3D

 34 39  0  0  0  0  0  0  0  0999 V2000
   36.4860    1.6240   37.4700 C   0  0  0  0  0  3  0  0  0  0  0  0
   38.3680    2.4560   39.0010 C   0  0  0  0  0  2  0  0  0  0  0  0
   38.3510    2.8660   40.4610 C   0  0  0  0  0  2  0  0  0  0  0  0
   38.0820    1.7710   41.4540 C   0  0  0  0  0  3  0  0  0  0  0  0
   36.9500    0.9000   40.9770 C   0  0  0  0  0  2  0  0  0  0  0  0
   37.2940    0.3360   39.5950 C   0  0  0  0  0  2  0  0  0  0  0  0
   38.7720    1.6450   42.5720 C   0  0  0  0  0  3  0  0  0  0  0  0
   39.9290    2.6460   42.8430 C   0  0  0  0  0  3  0  0  0  0  0  0
   39.6260    3.9310   43.3570 C   0  0  0  0  0  2  0  0  0  0  0  0
   40.6710    4.8270   43.5830 C   0  0  0  0  0  2  0  0  0  0  0  0
   41.9940    4.4580   43.3100 C   0  0  0  0  0  2  0  0  0  0  0  0
   42.2810    3.1940   42.8050 C   0  0  0  0  0  2  0  0  0  0  0  0
   41.2230    2.2820   42.5700 C   0  0  0  0  0  3  0  0  0  0  0  0
   41.5520    0.8830   42.0070 C   0  0  0  0  0  2  0  0  0  0  0  0
   39.4190   -0.4430   43.9010 C   0  0  0  0  0  3  0  0  0  0  0  0
   39.1370   -1.4400   44.8500 C   0  0  0  0  0  2  0  0  0  0  0  0
   37.9060   -1.4470   45.5090 C   0  0  0  0  0  2  0  0  0  0  0  0
   36.9600   -0.4620   45.2200 C   0  0  0  0  0  2  0  0  0  0  0  0
   37.2370    0.5240   44.2840 C   0  0  0  0  0  2  0  0  0  0  0  0
   38.4830    0.5240   43.6050 C   0  0  0  0  0  3  0  0  0  0  0  0
   35.4580    0.5460   37.0970 C   0  0  0  0  0  3  0  0  0  0  0  0
   35.9390   -0.5780   36.3710 C   0  0  0  0  0  3  0  0  0  0  0  0
   37.1220   -2.0980   35.2850 C   0  0  0  0  0  2  0  0  0  0  0  0
   35.8040   -2.5280   35.3230 C   0  0  0  0  0  2  0  0  0  0  0  0
   35.0540   -1.5560   36.0140 C   0  0  0  0  0  3  0  0  0  0  0  0
   33.6960   -1.4030   36.3810 C   0  0  0  0  0  2  0  0  0  0  0  0
   34.1130    0.6350   37.4220 C   0  0  0  0  0  2  0  0  0  0  0  0
   37.3490    1.4600   38.6410 N   0  0  0  0  0  0  0  0  0  0  0  0
   37.1890   -0.9240   35.9190 N   0  0  0  0  0  2  0  0  0  0  0  0
   33.2910   -0.3400   37.0540 N   0  0  0  0  0  2  0  0  0  0  0  0
   36.6220    2.5810   36.7900 O   0  0  0  0  0  1  0  0  0  0  0  0
   41.0410   -1.7120   42.2640 O   0  0  0  0  0  1  0  0  0  0  0  0
   42.0350   -0.6020   44.1460 O   0  0  0  0  0  1  0  0  0  0  0  0
   41.0430   -0.4930   43.0750 S   0  0  0  0  0  4  0  0  0  0  0  0
  1 21  1  0
  1 28  1  0
  1 31  1  0
  2  3  1  0
  2 28  1  0
  3  4  1  0
  4  5  1  0
  4  7  1  0
  5  6  1  0
  6 28  1  0
  7  8  1  0
  7 20  1  0
  8  9  1  0
  8 13  1  0
  9 10  1  0
 10 11  1  0
 11 12  1  0
 12 13  1  0
 13 14  1  0
 14 34  1  0
 15 16  1  0
 15 20  1  0
 15 34  1  0
 16 17  1  0
 17 18  1  0
 18 19  1  0
 19 20  1  0
 21 22  1  0
 21 27  1  0
 22 25  1  0
 22 29  1  0
 23 24  1  0
 23 29  1  0
 24 25  1  0
 25 26  1  0
 26 30  1  0
 27 30  1  0
 32 34  1  0
 33 34  1  0
M  END
$$$$
