8ws3_A_X7F_401
     RDKit          3D

 14 15  0  0  0  0  0  0  0  0999 V2000
   48.7270   17.0900   17.5370 C   0  0  0  0  0  3  0  0  0  0  0  0
   47.3440   16.6910   17.9930 C   0  0  0  0  0  2  0  0  0  0  0  0
   47.1660   16.0160   19.3100 C   0  0  0  0  0  2  0  0  0  0  0  0
   48.3630   15.7280   20.1840 C   0  0  0  0  0  3  0  0  0  0  0  0
   49.7900   16.1420   19.6990 C   0  0  0  0  0  3  0  0  0  0  0  0
   49.9650   16.7910   18.4440 C   0  0  0  0  0  3  0  0  0  0  0  0
   51.2490   17.1620   18.0230 C   0  0  0  0  0  3  0  0  0  0  0  0
   52.3590   16.8930   18.8370 C   0  0  0  0  0  2  0  0  0  0  0  0
   52.1840   16.2470   20.0900 C   0  0  0  0  0  2  0  0  0  0  0  0
   50.8990   15.8760   20.5150 C   0  0  0  0  0  3  0  0  0  0  0  0
   48.8760   17.6300   16.4920 O   0  0  0  0  0  1  0  0  0  0  0  0
   51.4230   17.7980   16.7890 O   0  0  0  0  0  1  0  0  0  0  0  0
   50.7100   15.2360   21.7500 O   0  0  0  0  0  1  0  0  0  0  0  0
   48.2290   15.1890   21.2340 O   0  0  0  0  0  1  0  0  0  0  0  0
  1  2  1  0
  1  6  1  0
  1 11  1  0
  2  3  1  0
  3  4  1  0
  4  5  1  0
  4 14  1  0
  5  6  1  0
  5 10  1  0
  6  7  1  0
  7  8  1  0
  7 12  1  0
  8  9  1  0
  9 10  1  0
 10 13  1  0
M  END
$$$$
