8y42_A_A09_401
     RDKit          3D

 37 41  0  0  0  0  0  0  0  0999 V2000
   -8.1390    7.5610   48.3940 C   0  0  0  0  0  2  0  0  0  0  0  0
   -7.6410   11.5200   45.0830 C   0  0  0  0  0  3  0  0  0  0  0  0
   -8.5570   12.2230   42.9190 C   0  0  0  0  0  3  0  0  0  0  0  0
   -8.2410   13.6550   42.5120 C   0  0  0  0  0  2  0  0  0  0  0  0
   -9.3760   14.2400   41.6820 C   0  0  0  0  0  2  0  0  0  0  0  0
   -9.6330   13.3820   40.4580 C   0  0  0  0  0  2  0  0  0  0  0  0
   -9.9630   11.9430   40.8440 C   0  0  0  0  0  2  0  0  0  0  0  0
   -8.8640   11.3350   41.7080 C   0  0  0  0  0  3  0  0  0  0  0  0
   -7.5920    9.8880   40.1100 C   0  0  0  0  0  3  0  0  0  0  0  0
   -7.4740   10.0580   38.7110 C   0  0  0  0  0  3  0  0  0  0  0  0
   -7.3920    8.9490   37.8720 C   0  0  0  0  0  2  0  0  0  0  0  0
   -6.7970    7.6530   48.1390 C   0  0  0  0  0  2  0  0  0  0  0  0
   -7.4160    7.6620   38.3900 C   0  0  0  0  0  3  0  0  0  0  0  0
   -7.5320    7.4890   39.7640 C   0  0  0  0  0  2  0  0  0  0  0  0
   -7.6030    8.5760   40.6290 C   0  0  0  0  0  3  0  0  0  0  0  0
   -7.3290    6.4830   37.4850 C   0  0  0  0  0  3  0  0  0  0  0  0
   -6.6100    5.2350   37.8610 C   0  0  0  0  0  2  0  0  0  0  0  0
   -8.0760    5.2270   37.7520 C   0  0  0  0  0  2  0  0  0  0  0  0
   -7.7080    8.3190   42.1010 C   0  0  0  0  0  3  0  0  0  0  0  0
   -8.6380    6.9930   43.9060 C   0  0  0  0  0  1  0  0  0  0  0  0
   -6.3360    8.6420   47.2650 C   0  0  0  0  0  3  0  0  0  0  0  0
   -7.2290    9.5370   46.6500 C   0  0  0  0  0  3  0  0  0  0  0  0
   -8.5970    9.4050   46.9420 C   0  0  0  0  0  2  0  0  0  0  0  0
   -9.0450    8.4410   47.7950 C   0  0  0  0  0  2  0  0  0  0  0  0
   -4.4420    9.6800   46.1610 C   0  0  0  0  0  3  0  0  0  0  0  0
   -5.3630   10.5940   45.5220 C   0  0  0  0  0  2  0  0  0  0  0  0
   -6.7140   10.5440   45.7730 C   0  0  0  0  0  3  0  0  0  0  0  0
   -4.9900    8.7570   46.9900 N   0  0  0  0  0  2  0  0  0  0  0  0
   -7.5070   11.6520   43.7530 N   0  0  0  0  0  2  0  0  0  0  0  0
   -7.6780   10.9860   40.9290 N   0  0  0  0  0  2  0  0  0  0  0  0
   -8.4460    7.2860   42.4980 N   0  0  0  0  0  2  0  0  0  0  0  0
   -7.4320   11.3750   38.0990 N   0  0  0  0  0  0  0  0  0  0  0  0
   -3.2050    9.7000   45.9740 O   0  0  0  0  0  1  0  0  0  0  0  0
   -8.4800   12.1560   45.7210 O   0  0  0  0  0  1  0  0  0  0  0  0
   -7.0890    9.0110   42.9030 O   0  0  0  0  0  1  0  0  0  0  0  0
   -7.4770   11.4520   36.8840 O   0  0  0  0  0  1  0  0  0  0  0  0
   -7.3030   12.3430   38.8210 O   0  0  0  0  0  1  0  0  0  0  0  0
  1 12  1  0
  1 24  1  0
  2 27  1  0
  2 29  1  0
  2 34  1  0
  3  4  1  0
  3  8  1  0
  3 29  1  0
  4  5  1  0
  5  6  1  0
  6  7  1  0
  7  8  1  0
  8 30  1  0
  9 10  1  0
  9 15  1  0
  9 30  1  0
 10 11  1  0
 10 32  1  0
 11 13  1  0
 12 21  1  0
 13 14  1  0
 13 16  1  0
 14 15  1  0
 15 19  1  0
 16 17  1  0
 16 18  1  0
 17 18  1  0
 19 31  1  0
 19 35  1  0
 20 31  1  0
 21 22  1  0
 21 28  1  0
 22 23  1  0
 22 27  1  0
 23 24  1  0
 25 26  1  0
 25 28  1  0
 25 33  1  0
 26 27  1  0
 32 36  1  0
 32 37  1  0
M  END
$$$$
