8y44_A_A10_401
     RDKit          3D

 39 43  0  0  0  0  0  0  0  0999 V2000
   20.0470   -5.5440   20.8230 Br  0  0  0  0  0  0  0  0  0  0  0  0
   17.4710   -7.0270   10.8030 C   0  0  0  0  0  3  0  0  0  0  0  0
   20.8070   -5.2040   11.3090 C   0  0  0  0  0  3  0  0  0  0  0  0
   22.5870   -4.8200   12.9510 C   0  0  0  0  0  3  0  0  0  0  0  0
   23.2800   -3.5610   12.4420 C   0  0  0  0  0  2  0  0  0  0  0  0
   24.7240   -3.4910   12.9280 C   0  0  0  0  0  2  0  0  0  0  0  0
   24.7870   -3.6170   14.4300 C   0  0  0  0  0  2  0  0  0  0  0  0
   24.1780   -4.9330   14.8910 C   0  0  0  0  0  2  0  0  0  0  0  0
   22.7180   -5.0180   14.4610 C   0  0  0  0  0  3  0  0  0  0  0  0
   21.4160   -4.4450   16.4920 C   0  0  0  0  0  3  0  0  0  0  0  0
   21.9120   -3.7470   17.6130 C   0  0  0  0  0  3  0  0  0  0  0  0
   21.4940   -4.0760   18.8960 C   0  0  0  0  0  2  0  0  0  0  0  0
   17.0210   -4.6840   11.2300 C   0  0  0  0  0  3  0  0  0  0  0  0
   20.5960   -5.1040   19.0570 C   0  0  0  0  0  3  0  0  0  0  0  0
   20.0930   -5.8060   18.0020 C   0  0  0  0  0  2  0  0  0  0  0  0
   20.5070   -5.5050   16.7010 C   0  0  0  0  0  3  0  0  0  0  0  0
   19.8990   -6.2670   15.5560 C   0  0  0  0  0  3  0  0  0  0  0  0
   19.5920   -8.2650   14.2370 C   0  0  0  0  0  2  0  0  0  0  0  0
   19.4140   -9.7400   14.5010 C   0  0  0  0  0  2  0  0  0  0  0  0
   21.4220   -9.5710   15.7320 C   0  0  0  0  0  2  0  0  0  0  0  0
   20.6050   -8.5230   16.4490 C   0  0  0  0  0  2  0  0  0  0  0  0
   18.4450   -4.4720   11.3380 C   0  0  0  0  0  2  0  0  0  0  0  0
   19.3360   -5.4940   11.1490 C   0  0  0  0  0  3  0  0  0  0  0  0
   18.8590   -6.8100   10.8970 C   0  0  0  0  0  3  0  0  0  0  0  0
   19.7170   -7.9090   10.7150 C   0  0  0  0  0  2  0  0  0  0  0  0
   19.2130   -9.1500   10.4500 C   0  0  0  0  0  2  0  0  0  0  0  0
   17.8380   -9.3450   10.3610 C   0  0  0  0  0  2  0  0  0  0  0  0
   16.9640   -8.3010   10.5330 C   0  0  0  0  0  2  0  0  0  0  0  0
   16.6220   -5.9530   10.9720 N   0  0  0  0  0  2  0  0  0  0  0  0
   21.1860   -4.8710   12.5450 N   0  0  0  0  0  2  0  0  0  0  0  0
   21.8590   -4.1290   15.2390 N   0  0  0  0  0  2  0  0  0  0  0  0
   22.8420   -2.6490   17.4850 N   0  0  0  0  0  0  0  0  0  0  0  0
   20.0350   -7.5960   15.4630 N   0  0  0  0  0  0  0  0  0  0  0  0
   16.1810   -3.7710   11.3860 O   0  0  0  0  0  1  0  0  0  0  0  0
   21.5990   -5.2860   10.3740 O   0  0  0  0  0  1  0  0  0  0  0  0
   19.2980   -5.6250   14.7030 O   0  0  0  0  0  1  0  0  0  0  0  0
   20.6410  -10.3750   14.8470 O   0  0  0  0  0  0  0  0  0  0  0  0
   23.3510   -2.2050   18.5060 O   0  0  0  0  0  1  0  0  0  0  0  0
   23.0060   -2.1540   16.3800 O   0  0  0  0  0  1  0  0  0  0  0  0
  1 14  1  0
  2 24  1  0
  2 28  1  0
  2 29  1  0
  3 23  1  0
  3 30  1  0
  3 35  1  0
  4  5  1  0
  4  9  1  0
  4 30  1  0
  5  6  1  0
  6  7  1  0
  7  8  1  0
  8  9  1  0
  9 31  1  0
 10 11  1  0
 10 16  1  0
 10 31  1  0
 11 12  1  0
 11 32  1  0
 12 14  1  0
 13 22  1  0
 13 29  1  0
 13 34  1  0
 14 15  1  0
 15 16  1  0
 16 17  1  0
 17 33  1  0
 17 36  1  0
 18 19  1  0
 18 33  1  0
 19 37  1  0
 20 21  1  0
 20 37  1  0
 21 33  1  0
 22 23  1  0
 23 24  1  0
 24 25  1  0
 25 26  1  0
 26 27  1  0
 27 28  1  0
 32 38  1  0
 32 39  1  0
M  END
$$$$
