8y4e_A_FHR_301
     RDKit          3D

 33 36  0  0  0  0  0  0  0  0999 V2000
   64.4000  -35.1070   -2.2290 C   0  0  0  0  0  3  0  0  0  0  0  0
   63.9030  -34.3380   -3.4630 C   0  0  0  0  0  3  0  0  0  0  0  0
   63.3490  -33.0760   -3.5420 C   0  0  0  0  0  2  0  0  0  0  0  0
   63.0460  -32.8540   -4.8780 C   0  0  0  0  0  3  0  0  0  0  0  0
   62.4010  -31.6060   -5.6250 C   0  0  0  0  0  2  0  0  0  0  0  0
   62.1990  -31.6630   -7.1280 C   0  0  0  0  0  2  0  0  0  0  0  0
   62.5940  -32.8780   -7.8910 C   0  0  0  0  0  2  0  0  0  0  0  0
   63.2010  -34.0680   -7.1730 C   0  0  0  0  0  2  0  0  0  0  0  0
   63.4100  -33.9930   -5.6060 C   0  0  0  0  0  3  0  0  0  0  0  0
   65.1360  -33.3710   -0.2750 C   0  0  0  0  0  3  0  0  0  0  0  0
   65.8770  -32.2610   -0.9950 C   0  0  0  0  0  2  0  0  0  0  0  0
   67.4350  -32.4560   -1.0470 C   0  0  0  0  0  3  0  0  0  0  0  0
   67.9290  -33.8070   -0.5210 C   0  0  0  0  0  2  0  0  0  0  0  0
   69.4350  -33.9990   -0.8330 C   0  0  0  0  0  2  0  0  0  0  0  0
   70.3110  -32.8270   -0.3350 C   0  0  0  0  0  2  0  0  0  0  0  0
   69.7030  -31.4460   -0.6110 C   0  0  0  0  0  2  0  0  0  0  0  0
   68.1960  -31.3450   -0.2950 C   0  0  0  0  0  2  0  0  0  0  0  0
   63.7280  -33.0540    0.2060 C   0  0  0  0  0  3  0  0  0  0  0  0
   62.1940  -33.3850    2.2380 C   0  0  0  0  0  3  0  0  0  0  0  0
   61.4760  -34.7400    2.3280 C   0  0  0  0  0  2  0  0  0  0  0  0
   60.9720  -35.1250    0.8540 C   0  0  0  0  0  3  0  0  0  0  0  0
   60.0610  -34.2610    0.5280 C   0  0  0  0  0  2  0  0  0  0  0  0
   58.8560  -35.0860   -0.3480 C   0  0  0  0  0  2  0  0  0  0  0  0
   60.2230  -36.5270    0.8860 C   0  0  0  0  0  3  0  0  0  0  0  0
   62.5040  -32.9000    3.6330 C   0  0  0  0  0  2  0  0  0  0  0  0
   63.9270  -34.9150   -4.7190 N   0  0  0  0  0  2  0  0  0  0  0  0
   64.9370  -34.6550   -0.9390 N   0  0  0  0  0  2  0  0  0  0  0  0
   63.4560  -33.5480    1.5400 N   0  0  0  0  0  2  0  0  0  0  0  0
   58.8610  -36.3220    0.0580 N   0  0  0  0  0  2  0  0  0  0  0  0
   64.3860  -36.2690   -2.3630 O   0  0  0  0  0  1  0  0  0  0  0  0
   60.6060  -37.5120    1.4160 O   0  0  0  0  0  1  0  0  0  0  0  0
   61.5850  -32.5120    4.2880 O   0  0  0  0  0  1  0  0  0  0  0  0
   62.9410  -32.5080   -0.4500 O   0  0  0  0  0  1  0  0  0  0  0  0
  1  2  1  0
  1 27  1  0
  1 30  1  0
  2  3  1  0
  2 26  1  0
  3  4  1  0
  4  5  1  0
  4  9  1  0
  5  6  1  0
  6  7  1  0
  7  8  1  0
  8  9  1  0
  9 26  1  0
 10 11  1  0
 10 18  1  0
 10 27  1  0
 11 12  1  0
 12 13  1  0
 12 17  1  0
 13 14  1  0
 14 15  1  0
 15 16  1  0
 16 17  1  0
 18 28  1  0
 18 33  1  0
 19 20  1  0
 19 25  1  0
 19 28  1  0
 20 21  1  0
 21 22  1  0
 21 24  1  0
 22 23  1  0
 23 29  1  0
 24 29  1  0
 24 31  1  0
 25 32  1  0
M  END
$$$$
