8y4e_B_FHR_301
     RDKit          3D

 33 36  0  0  0  0  0  0  0  0999 V2000
   34.0280  -61.0630   25.7360 C   0  0  0  0  0  3  0  0  0  0  0  0
   33.6970  -62.4150   25.0770 C   0  0  0  0  0  3  0  0  0  0  0  0
   33.5700  -63.6400   25.7150 C   0  0  0  0  0  2  0  0  0  0  0  0
   33.2740  -64.5770   24.7440 C   0  0  0  0  0  3  0  0  0  0  0  0
   33.0140  -66.1340   24.8160 C   0  0  0  0  0  2  0  0  0  0  0  0
   32.7130  -66.9050   23.5550 C   0  0  0  0  0  2  0  0  0  0  0  0
   32.6600  -66.2060   22.2490 C   0  0  0  0  0  2  0  0  0  0  0  0
   32.9110  -64.7190   22.1920 C   0  0  0  0  0  2  0  0  0  0  0  0
   33.2240  -63.9270   23.5200 C   0  0  0  0  0  3  0  0  0  0  0  0
   34.4190  -59.6150   27.7680 C   0  0  0  0  0  3  0  0  0  0  0  0
   34.0580  -59.6080   29.2310 C   0  0  0  0  0  2  0  0  0  0  0  0
   32.8430  -58.6710   29.4560 C   0  0  0  0  0  3  0  0  0  0  0  0
   32.3320  -58.8670   30.8920 C   0  0  0  0  0  2  0  0  0  0  0  0
   30.8830  -59.3730   30.9690 C   0  0  0  0  0  2  0  0  0  0  0  0
   29.9030  -58.5920   30.0780 C   0  0  0  0  0  2  0  0  0  0  0  0
   30.5050  -58.1230   28.7540 C   0  0  0  0  0  2  0  0  0  0  0  0
   31.7460  -58.9570   28.4220 C   0  0  0  0  0  2  0  0  0  0  0  0
   35.9220  -59.4490   27.6480 C   0  0  0  0  0  3  0  0  0  0  0  0
   37.9810  -58.0920   27.3000 C   0  0  0  0  0  3  0  0  0  0  0  0
   38.4150  -57.7000   25.8800 C   0  0  0  0  0  2  0  0  0  0  0  0
   38.3140  -59.0160   24.9900 C   0  0  0  0  0  3  0  0  0  0  0  0
   39.2060  -59.8690   25.3880 C   0  0  0  0  0  2  0  0  0  0  0  0
   39.6630  -60.7390   24.0000 C   0  0  0  0  0  2  0  0  0  0  0  0
   38.6790  -58.6880   23.4710 C   0  0  0  0  0  3  0  0  0  0  0  0
   38.5250  -57.0560   28.2300 C   0  0  0  0  0  2  0  0  0  0  0  0
   33.4840  -62.5910   23.7330 N   0  0  0  0  0  2  0  0  0  0  0  0
   34.0750  -60.9190   27.1970 N   0  0  0  0  0  2  0  0  0  0  0  0
   36.5270  -58.1490   27.4000 N   0  0  0  0  0  2  0  0  0  0  0  0
   39.5560  -59.9310   22.9790 N   0  0  0  0  0  2  0  0  0  0  0  0
   34.2600  -60.1290   25.0470 O   0  0  0  0  0  1  0  0  0  0  0  0
   38.3660  -57.7290   22.8430 O   0  0  0  0  0  1  0  0  0  0  0  0
   39.7080  -56.9270   28.2640 O   0  0  0  0  0  1  0  0  0  0  0  0
   36.6110  -60.3840   27.7470 O   0  0  0  0  0  1  0  0  0  0  0  0
  1  2  1  0
  1 27  1  0
  1 30  1  0
  2  3  1  0
  2 26  1  0
  3  4  1  0
  4  5  1  0
  4  9  1  0
  5  6  1  0
  6  7  1  0
  7  8  1  0
  8  9  1  0
  9 26  1  0
 10 11  1  0
 10 18  1  0
 10 27  1  0
 11 12  1  0
 12 13  1  0
 12 17  1  0
 13 14  1  0
 14 15  1  0
 15 16  1  0
 16 17  1  0
 18 28  1  0
 18 33  1  0
 19 20  1  0
 19 25  1  0
 19 28  1  0
 20 21  1  0
 21 22  1  0
 21 24  1  0
 22 23  1  0
 23 29  1  0
 24 29  1  0
 24 31  1  0
 25 32  1  0
M  END
$$$$
