8ywy_A_FHR_401
     RDKit          3D

 33 36  0  0  0  0  0  0  0  0999 V2000
   10.5350    1.5470   22.1640 C   0  0  0  0  0  3  0  0  0  0  0  0
   10.8170    2.9360   22.7210 C   0  0  0  0  0  3  0  0  0  0  0  0
   11.5330    3.1930   23.8730 C   0  0  0  0  0  2  0  0  0  0  0  0
   11.6210    4.5600   23.9640 C   0  0  0  0  0  3  0  0  0  0  0  0
   12.2780    5.4960   25.0460 C   0  0  0  0  0  2  0  0  0  0  0  0
   12.2140    6.9800   24.8490 C   0  0  0  0  0  2  0  0  0  0  0  0
   11.5390    7.5600   23.6760 C   0  0  0  0  0  2  0  0  0  0  0  0
   10.9150    6.6570   22.6580 C   0  0  0  0  0  2  0  0  0  0  0  0
   10.9910    5.1120   22.8610 C   0  0  0  0  0  3  0  0  0  0  0  0
   10.4930   -0.9330   22.3870 C   0  0  0  0  0  3  0  0  0  0  0  0
   10.7600   -2.0260   23.3860 C   0  0  0  0  0  2  0  0  0  0  0  0
   12.2490   -2.2420   23.7730 C   0  0  0  0  0  3  0  0  0  0  0  0
   12.2920   -2.2990   25.2930 C   0  0  0  0  0  2  0  0  0  0  0  0
   13.6690   -2.7720   25.7810 C   0  0  0  0  0  2  0  0  0  0  0  0
   14.8750   -2.1000   25.1010 C   0  0  0  0  0  2  0  0  0  0  0  0
   14.6760   -1.4250   23.7300 C   0  0  0  0  0  2  0  0  0  0  0  0
   13.2200   -1.1770   23.2850 C   0  0  0  0  0  2  0  0  0  0  0  0
    9.0700   -1.1480   21.8970 C   0  0  0  0  0  3  0  0  0  0  0  0
    7.4110   -1.9220   20.3480 C   0  0  0  0  0  3  0  0  0  0  0  0
    7.0880   -1.2600   19.0010 C   0  0  0  0  0  2  0  0  0  0  0  0
    6.9970    0.2970   19.3890 C   0  0  0  0  0  3  0  0  0  0  0  0
    6.1350    0.4610   20.3590 C   0  0  0  0  0  2  0  0  0  0  0  0
    5.0030    1.6460   19.9030 C   0  0  0  0  0  2  0  0  0  0  0  0
    6.5070    1.1800   18.1530 C   0  0  0  0  0  3  0  0  0  0  0  0
    6.9570   -3.3660   20.5190 C   0  0  0  0  0  2  0  0  0  0  0  0
   10.5020    4.0990   22.0840 N   0  0  0  0  0  2  0  0  0  0  0  0
   10.6810    0.3720   23.0160 N   0  0  0  0  0  2  0  0  0  0  0  0
    8.8490   -1.7970   20.6140 N   0  0  0  0  0  2  0  0  0  0  0  0
    5.2220    1.9780   18.6570 N   0  0  0  0  0  2  0  0  0  0  0  0
   10.2960    1.4520   21.0120 O   0  0  0  0  0  1  0  0  0  0  0  0
    6.9990    1.2420   17.0710 O   0  0  0  0  0  1  0  0  0  0  0  0
    6.5650   -4.0580   19.6330 O   0  0  0  0  0  1  0  0  0  0  0  0
    8.1420   -0.8140   22.5480 O   0  0  0  0  0  1  0  0  0  0  0  0
  1  2  1  0
  1 27  1  0
  1 30  1  0
  2  3  1  0
  2 26  1  0
  3  4  1  0
  4  5  1  0
  4  9  1  0
  5  6  1  0
  6  7  1  0
  7  8  1  0
  8  9  1  0
  9 26  1  0
 10 11  1  0
 10 18  1  0
 10 27  1  0
 11 12  1  0
 12 13  1  0
 12 17  1  0
 13 14  1  0
 14 15  1  0
 15 16  1  0
 16 17  1  0
 18 28  1  0
 18 33  1  0
 19 20  1  0
 19 25  1  0
 19 28  1  0
 20 21  1  0
 21 22  1  0
 21 24  1  0
 22 23  1  0
 23 29  1  0
 24 29  1  0
 24 31  1  0
 25 32  1  0
M  END
$$$$
