9bbp_A_A13_405
     RDKit          3D

 34 36  0  0  0  0  0  0  0  0999 V2000
  -16.2410   20.9660  -24.3620 C   0  0  0  0  0  3  0  0  0  0  0  0
  -18.1600   22.3200  -23.8820 C   0  0  0  0  0  2  0  0  0  0  0  0
  -18.2710   21.6620  -25.3520 C   0  0  0  0  0  2  0  0  0  0  0  0
  -17.0470   20.6790  -25.4450 C   0  0  0  0  0  3  0  0  0  0  0  0
  -16.4210   20.6500  -26.9540 C   0  0  0  0  0  2  0  0  0  0  0  0
  -17.4040   19.8940  -27.8990 C   0  0  0  0  0  3  0  0  0  0  0  0
  -16.9130   19.8730  -29.3590 C   0  0  0  0  0  2  0  0  0  0  0  0
  -18.7260   18.0200  -26.7300 C   0  0  0  0  0  3  0  0  0  0  0  0
  -18.8010   16.5370  -26.3380 C   0  0  0  0  0  3  0  0  0  0  0  0
  -19.6330   15.7430  -27.3710 C   0  0  0  0  0  2  0  0  0  0  0  0
  -19.6590   14.2490  -27.0290 C   0  0  0  0  0  3  0  0  0  0  0  0
  -20.5200   13.4720  -28.0500 C   0  0  0  0  0  1  0  0  0  0  0  0
  -18.2440   13.7230  -27.0560 C   0  0  0  0  0  1  0  0  0  0  0  0
  -18.8990   16.9810  -23.8650 C   0  0  0  0  0  3  0  0  0  0  0  0
  -19.5650   16.7320  -22.4900 C   0  0  0  0  0  3  0  0  0  0  0  0
  -19.6970   17.7620  -21.5300 C   0  0  0  0  0  2  0  0  0  0  0  0
  -20.2820   17.4390  -20.3080 C   0  0  0  0  0  2  0  0  0  0  0  0
  -20.7250   16.1320  -20.0310 C   0  0  0  0  0  3  0  0  0  0  0  0
  -21.3370   15.7920  -18.6450 C   0  0  0  0  0  3  0  0  0  0  0  0
  -20.9630   16.5760  -17.5700 C   0  0  0  0  0  2  0  0  0  0  0  0
  -22.2400   15.3320  -16.1470 C   0  0  0  0  0  3  0  0  0  0  0  0
  -22.6380   14.4570  -17.1600 C   0  0  0  0  0  2  0  0  0  0  0  0
  -22.1770   14.6770  -18.4620 C   0  0  0  0  0  2  0  0  0  0  0  0
  -20.5710   15.1140  -20.9680 C   0  0  0  0  0  2  0  0  0  0  0  0
  -19.9880   15.4400  -22.2140 C   0  0  0  0  0  2  0  0  0  0  0  0
  -22.6720   15.1210  -14.8750 F   0  0  0  0  0  0  0  0  0  0  0  0
  -16.8640   22.3050  -23.6160 N   0  0  0  0  0  2  0  0  0  0  0  0
  -17.6180   20.8680  -30.1750 N   0  0  0  0  0  1  0  0  0  0  0  0
  -17.5290   18.4900  -27.4890 N   0  0  0  0  0  2  0  0  0  0  0  0
  -19.4490   16.3330  -25.0630 N   0  0  0  0  0  2  0  0  0  0  0  0
  -21.4350   16.3570  -16.3450 N   0  0  0  0  0  2  0  0  0  0  0  0
  -14.9100   21.1790  -24.5370 O   0  0  0  0  0  1  0  0  0  0  0  0
  -17.9260   17.6530  -23.9900 O   0  0  0  0  0  1  0  0  0  0  0  0
  -19.5810   18.7840  -26.4270 O   0  0  0  0  0  1  0  0  0  0  0  0
  1  4  1  0
  1 27  1  0
  1 32  1  0
  2  3  1  0
  2 27  1  0
  3  4  1  0
  4  5  1  0
  5  6  1  0
  6  7  1  0
  6 29  1  0
  7 28  1  0
  8  9  1  0
  8 29  1  0
  8 34  1  0
  9 10  1  0
  9 30  1  0
 10 11  1  0
 11 12  1  0
 11 13  1  0
 14 15  1  0
 14 30  1  0
 14 33  1  0
 15 16  1  0
 15 25  1  0
 16 17  1  0
 17 18  1  0
 18 19  1  0
 18 24  1  0
 19 20  1  0
 19 23  1  0
 20 31  1  0
 21 22  1  0
 21 26  1  0
 21 31  1  0
 22 23  1  0
 24 25  1  0
M  END
$$$$
