9cdk_A_XEK_401
     RDKit          3D

116297  0  0  0  0  0  0  0  0999 V2000
    8.8650   -0.3590   21.1840 C   0  0  0  0  0  7  0  0  0  0  0  0
    8.8660   -0.3830   21.1700 C   0  0  0  0  0  7  0  0  0  0  0  0
   11.8130    5.2090   24.9940 C   0  0  0  0  0  6  0  0  0  0  0  0
   13.9790    4.9770   22.7930 C   0  0  0  0  0  5  0  0  0  0  0  0
   12.2890    6.3810   25.5540 C   0  0  0  0  0  6  0  0  0  0  0  0
   14.5800    6.1640   23.1700 C   0  0  0  0  0  7  0  0  0  0  0  0
   13.3890    7.0080   25.0180 C   0  0  0  0  0  6  0  0  0  0  0  0
   13.9670    6.9890   24.0840 C   0  0  0  0  0  6  0  0  0  0  0  0
   12.7550    6.6390   24.6280 C   0  0  0  0  0  7  0  0  0  0  0  0
   14.0240    6.4710   23.9240 C   0  0  0  0  0  6  0  0  0  0  0  0
   12.1560    5.4510   24.2460 C   0  0  0  0  0  7  0  0  0  0  0  0
   13.5450    5.2960   23.3690 C   0  0  0  0  0  7  0  0  0  0  0  0
   11.0870    0.5790   23.0390 C   0  0  0  0  0  7  0  0  0  0  0  0
   11.1020    0.5660   22.9530 C   0  0  0  0  0  7  0  0  0  0  0  0
    9.0250   -2.4080   22.4760 C   0  0  0  0  0  7  0  0  0  0  0  0
    9.0260   -2.3860   22.4890 C   0  0  0  0  0  7  0  0  0  0  0  0
    7.7850   -2.8600   22.0180 C   0  0  0  0  0  7  0  0  0  0  0  0
    7.7930   -2.8460   22.0230 C   0  0  0  0  0  7  0  0  0  0  0  0
    7.2280   -4.1560   22.4730 C   0  0  0  0  0  7  0  0  0  0  0  0
    7.2440   -4.1450   22.4780 C   0  0  0  0  0  7  0  0  0  0  0  0
    6.4060   -4.9510   21.5710 C   0  0  0  0  0  7  0  0  0  0  0  0
    6.4210   -4.9430   21.5790 C   0  0  0  0  0  7  0  0  0  0  0  0
    9.5690   -1.1710   22.0780 C   0  0  0  0  0  7  0  0  0  0  0  0
    9.5750   -1.1980   22.0570 C   0  0  0  0  0  7  0  0  0  0  0  0
    7.4680   -4.6080   23.7340 C   0  0  0  0  0  7  0  0  0  0  0  0
    7.4920   -4.5970   23.7370 C   0  0  0  0  0  7  0  0  0  0  0  0
    7.2470   -6.2470   25.5370 C   0  0  0  0  0  9  0  0  0  0  0  0
    7.2860   -6.2370   25.5410 C   0  0  0  0  0  9  0  0  0  0  0  0
    6.1820   -6.5900   23.3690 C   0  0  0  0  0  7  0  0  0  0  0  0
    6.2120   -6.5830   23.3780 C   0  0  0  0  0  7  0  0  0  0  0  0
    7.0580   -2.0740   21.1330 C   0  0  0  0  0  7  0  0  0  0  0  0
    7.0660   -2.0630   21.1340 C   0  0  0  0  0  7  0  0  0  0  0  0
    6.8250   -0.0670   19.7840 C   0  0  0  0  0  7  0  0  0  0  0  0
    6.8330   -0.0520   19.7820 C   0  0  0  0  0  7  0  0  0  0  0  0
    5.6980    0.6100   20.1900 C   0  0  0  0  0  7  0  0  0  0  0  0
    5.7110    0.6380   20.1810 C   0  0  0  0  0  7  0  0  0  0  0  0
    4.9970    1.3640   19.2660 C   0  0  0  0  0  7  0  0  0  0  0  0
    5.0170    1.3890   19.2490 C   0  0  0  0  0  7  0  0  0  0  0  0
    5.4460    1.4000   17.9680 C   0  0  0  0  0  7  0  0  0  0  0  0
    5.4700    1.4120   17.9520 C   0  0  0  0  0  7  0  0  0  0  0  0
    7.2090    0.0140   18.4510 C   0  0  0  0  0  7  0  0  0  0  0  0
    7.2220    0.0170   18.4500 C   0  0  0  0  0  7  0  0  0  0  0  0
   10.8850   -0.7380   22.6130 C   0  0  0  0  0  7  0  0  0  0  0  0
   10.8960   -0.7680   22.5860 C   0  0  0  0  0  7  0  0  0  0  0  0
   11.9430   -1.6440   22.7190 C   0  0  0  0  0  7  0  0  0  0  0  0
   11.9470   -1.6740   22.7530 C   0  0  0  0  0  7  0  0  0  0  0  0
   13.1630   -1.2550   23.2620 C   0  0  0  0  0  7  0  0  0  0  0  0
   13.1640   -1.2400   23.2290 C   0  0  0  0  0  7  0  0  0  0  0  0
   13.3410    0.0660   23.6450 C   0  0  0  0  0  7  0  0  0  0  0  0
   13.3430    0.0690   23.6180 C   0  0  0  0  0  7  0  0  0  0  0  0
   12.3140    0.9850   23.5470 C   0  0  0  0  0  7  0  0  0  0  0  0
   12.3240    0.9860   23.4620 C   0  0  0  0  0  7  0  0  0  0  0  0
   11.9260    3.3630   23.2760 C   0  0  0  0  0  8  0  0  0  0  0  0
   12.0930    3.3070   22.9190 C   0  0  0  0  0  8  0  0  0  0  0  0
   12.4290    4.6410   23.8860 C   0  0  0  0  0  7  0  0  0  0  0  0
   12.7490    4.5980   23.3170 C   0  0  0  0  0  7  0  0  0  0  0  0
   14.4540   -2.3870   23.4720 Cl  0  0  0  0  0  3  0  0  0  0  0  0
   14.4630   -2.3740   23.3580 Cl  0  0  0  0  0  3  0  0  0  0  0  0
   10.6070    5.0440   24.9480 Cl  0  0  0  0  0  4  0  0  0  0  0  0
   14.3800    4.6460   21.9810 Cl  0  0  0  0  0  5  0  0  0  0  0  0
   14.5330    0.4680   24.1200 F   0  0  0  0  0  3  0  0  0  0  0  0
   14.5360    0.4480   24.1460 F   0  0  0  0  0  3  0  0  0  0  0  0
   11.8210   -2.5370   22.4400 H   0  0  0  0  0  3  0  0  0  0  0  0
   11.8220   -2.5790   22.5150 H   0  0  0  0  0  3  0  0  0  0  0  0
    5.4430   -6.6400   21.5690 H   0  0  0  0  0  3  0  0  0  0  0  0
    5.4650   -6.6350   21.5810 H   0  0  0  0  0  3  0  0  0  0  0  0
    8.0010   -4.1030   24.3260 H   0  0  0  0  0  3  0  0  0  0  0  0
    8.0250   -4.0900   24.3270 H   0  0  0  0  0  3  0  0  0  0  0  0
    7.6110   -5.5130   26.0580 H   0  0  0  0  0  3  0  0  0  0  0  0
    7.6700   -5.5070   26.0540 H   0  0  0  0  0  3  0  0  0  0  0  0
    7.8930   -6.9710   25.5000 H   0  0  0  0  0  3  0  0  0  0  0  0
    7.9180   -6.9730   25.4990 H   0  0  0  0  0  3  0  0  0  0  0  0
    6.4270   -6.5630   25.9500 H   0  0  0  0  0  3  0  0  0  0  0  0
    6.4660   -6.5370   25.9650 H   0  0  0  0  0  3  0  0  0  0  0  0
    6.2120   -2.3520   20.8150 H   0  0  0  0  0  3  0  0  0  0  0  0
    6.2240   -2.3460   20.8100 H   0  0  0  0  0  3  0  0  0  0  0  0
    5.4080    0.5630   21.0810 H   0  0  0  0  0  3  0  0  0  0  0  0
    5.4180    0.6010   21.0710 H   0  0  0  0  0  3  0  0  0  0  0  0
    4.2280    1.8400   19.5280 H   0  0  0  0  0  3  0  0  0  0  0  0
    4.2510    1.8730   19.5050 H   0  0  0  0  0  3  0  0  0  0  0  0
    4.9680    1.9100   17.3370 H   0  0  0  0  0  3  0  0  0  0  0  0
    4.9970    1.9210   17.3160 H   0  0  0  0  0  3  0  0  0  0  0  0
    7.9740   -0.4630   18.1680 H   0  0  0  0  0  3  0  0  0  0  0  0
    7.9850   -0.4660   18.1730 H   0  0  0  0  0  3  0  0  0  0  0  0
   10.9510    3.3100   23.3600 H   0  0  0  0  0  2  0  0  0  0  0  0
   11.1190    3.3920   22.9750 H   0  0  0  0  0  3  0  0  0  0  0  0
   12.1580    3.3300   22.3240 H   0  0  0  0  0  3  0  0  0  0  0  0
   12.3320    3.0760   21.9970 H   0  0  0  0  0  2  0  0  0  0  0  0
   11.0570    4.7860   25.3680 H   0  0  0  0  0  2  0  0  0  0  0  0
   14.4090    4.4120   22.1700 H   0  0  0  0  0  2  0  0  0  0  0  0
   11.8560    6.7520   26.3070 H   0  0  0  0  0  0  0  0  0  0  0  0
   15.4130    6.4080   22.7990 H   0  0  0  0  0  0  0  0  0  0  0  0
   13.7100    7.8050   25.3990 H   0  0  0  0  0  0  0  0  0  0  0  0
   14.3770    7.7960   24.3380 H   0  0  0  0  0  0  0  0  0  0  0  0
   12.3350    7.1990   25.2540 H   0  0  0  0  0  3  0  0  0  0  0  0
   14.7750    6.8950   23.5540 H   0  0  0  0  0  3  0  0  0  0  0  0
   10.3780    1.2010   22.9810 H   0  0  0  0  0  3  0  0  0  0  0  0
   10.4000    1.1910   22.8520 H   0  0  0  0  0  3  0  0  0  0  0  0
    9.5070   -2.9440   23.0920 H   0  0  0  0  0  3  0  0  0  0  0  0
    9.5100   -2.9200   23.1060 H   0  0  0  0  0  3  0  0  0  0  0  0
    5.9370   -6.1380   22.0970 N   0  0  0  0  0  7  0  0  0  0  0  0
    5.9590   -6.1320   22.1070 N   0  0  0  0  0  7  0  0  0  0  0  0
    6.9580   -5.7820   24.1760 N   0  0  0  0  0  7  0  0  0  0  0  0
    6.9890   -5.7730   24.1810 N   0  0  0  0  0  7  0  0  0  0  0  0
    7.5810   -0.8720   20.7150 N   0  0  0  0  0  7  0  0  0  0  0  0
    7.5840   -0.8540   20.7200 N   0  0  0  0  0  7  0  0  0  0  0  0
    6.5340    0.7410   17.5570 N   0  0  0  0  0  5  0  0  0  0  0  0
    6.5540    0.7420   17.5490 N   0  0  0  0  0  5  0  0  0  0  0  0
    9.2200    0.7060   20.7400 O   0  0  0  0  0  3  0  0  0  0  0  0
    9.2230    0.7310   20.7600 O   0  0  0  0  0  3  0  0  0  0  0  0
   12.5420    2.2680   23.9730 O   0  0  0  0  0  5  0  0  0  0  0  0
   12.5530    2.2880   23.8190 O   0  0  0  0  0  5  0  0  0  0  0  0
    6.1160   -4.6710   20.4110 O   0  0  0  0  0  3  0  0  0  0  0  0
    6.1250   -4.6610   20.4210 O   0  0  0  0  0  3  0  0  0  0  0  0
    5.7270   -7.6530   23.7620 O   0  0  0  0  0  3  0  0  0  0  0  0
    5.7640   -7.6480   23.7720 O   0  0  0  0  0  3  0  0  0  0  0  0
  1  2  1  0
  1 23  1  0
  1 24  1  0
  1105  1  0
  1106  1  0
  1109  1  0
  1110  1  0
  2 23  1  0
  2 24  1  0
  2105  1  0
  2106  1  0
  2109  1  0
  2110  1  0
  3  5  1  0
  3  9  1  0
  3 11  1  0
  3 55  1  0
  3 59  1  0
  3 89  1  0
  4  6  1  0
  4 12  1  0
  4 56  1  0
  4 60  1  0
  4 90  1  0
  5  7  1  0
  5  9  1  0
  5 11  1  0
  5 91  1  0
  5 95  1  0
  6  8  1  0
  6 10  1  0
  6 12  1  0
  6 60  1  0
  6 92  1  0
  6 96  1  0
  7  8  1  0
  7  9  1  0
  7 10  1  0
  7 93  1  0
  7 95  1  0
  8  9  1  0
  8 10  1  0
  8 94  1  0
  8 96  1  0
  9 10  1  0
  9 11  1  0
  9 95  1  0
 10 12  1  0
 10 96  1  0
 11 12  1  0
 11 55  1  0
 11 56  1  0
 11 59  1  0
 12 55  1  0
 12 56  1  0
 12 60  1  0
 13 14  1  0
 13 43  1  0
 13 44  1  0
 13 51  1  0
 13 52  1  0
 13 97  1  0
 13 98  1  0
 14 43  1  0
 14 44  1  0
 14 51  1  0
 14 52  1  0
 14 97  1  0
 14 98  1  0
 15 16  1  0
 15 17  1  0
 15 18  1  0
 15 23  1  0
 15 24  1  0
 15 99  1  0
 15100  1  0
 16 17  1  0
 16 18  1  0
 16 23  1  0
 16 24  1  0
 16 99  1  0
 16100  1  0
 17 18  1  0
 17 19  1  0
 17 20  1  0
 17 31  1  0
 17 32  1  0
 18 19  1  0
 18 20  1  0
 18 31  1  0
 18 32  1  0
 19 20  1  0
 19 21  1  0
 19 22  1  0
 19 25  1  0
 19 26  1  0
 20 21  1  0
 20 22  1  0
 20 25  1  0
 20 26  1  0
 21 22  1  0
 21101  1  0
 21102  1  0
 21113  1  0
 21114  1  0
 22101  1  0
 22102  1  0
 22113  1  0
 22114  1  0
 23 24  1  0
 23 43  1  0
 23 44  1  0
 24 43  1  0
 24 44  1  0
 25 26  1  0
 25 67  1  0
 25 68  1  0
 25103  1  0
 25104  1  0
 26 67  1  0
 26 68  1  0
 26103  1  0
 26104  1  0
 27 28  1  0
 27 69  1  0
 27 70  1  0
 27 71  1  0
 27 72  1  0
 27 73  1  0
 27 74  1  0
 27103  1  0
 27104  1  0
 28 69  1  0
 28 70  1  0
 28 71  1  0
 28 72  1  0
 28 73  1  0
 28 74  1  0
 28103  1  0
 28104  1  0
 29 30  1  0
 29101  1  0
 29102  1  0
 29103  1  0
 29104  1  0
 29115  1  0
 29116  1  0
 30101  1  0
 30102  1  0
 30103  1  0
 30104  1  0
 30115  1  0
 30116  1  0
 31 32  1  0
 31 75  1  0
 31 76  1  0
 31105  1  0
 31106  1  0
 32 75  1  0
 32 76  1  0
 32105  1  0
 32106  1  0
 33 34  1  0
 33 35  1  0
 33 36  1  0
 33 41  1  0
 33 42  1  0
 33105  1  0
 33106  1  0
 34 35  1  0
 34 36  1  0
 34 41  1  0
 34 42  1  0
 34105  1  0
 34106  1  0
 35 36  1  0
 35 37  1  0
 35 38  1  0
 35 77  1  0
 35 78  1  0
 36 37  1  0
 36 38  1  0
 36 77  1  0
 36 78  1  0
 37 38  1  0
 37 39  1  0
 37 40  1  0
 37 79  1  0
 37 80  1  0
 38 39  1  0
 38 40  1  0
 38 79  1  0
 38 80  1  0
 39 40  1  0
 39 81  1  0
 39 82  1  0
 39107  1  0
 39108  1  0
 40 81  1  0
 40 82  1  0
 40107  1  0
 40108  1  0
 41 42  1  0
 41 83  1  0
 41 84  1  0
 41107  1  0
 41108  1  0
 42 83  1  0
 42 84  1  0
 42107  1  0
 42108  1  0
 43 44  1  0
 43 45  1  0
 43 46  1  0
 44 45  1  0
 44 46  1  0
 45 46  1  0
 45 47  1  0
 45 48  1  0
 45 63  1  0
 45 64  1  0
 46 47  1  0
 46 48  1  0
 46 63  1  0
 46 64  1  0
 47 48  1  0
 47 49  1  0
 47 50  1  0
 47 57  1  0
 47 58  1  0
 48 49  1  0
 48 50  1  0
 48 57  1  0
 48 58  1  0
 49 50  1  0
 49 51  1  0
 49 52  1  0
 49 61  1  0
 49 62  1  0
 50 51  1  0
 50 52  1  0
 50 61  1  0
 50 62  1  0
 51 52  1  0
 51111  1  0
 51112  1  0
 52111  1  0
 52112  1  0
 53 54  1  0
 53 55  1  0
 53 56  1  0
 53 85  1  0
 53 86  1  0
 53 87  1  0
 53111  1  0
 53112  1  0
 54 55  1  0
 54 56  1  0
 54 86  1  0
 54 87  1  0
 54 88  1  0
 54111  1  0
 54112  1  0
 55 56  1  0
 55 59  1  0
 56 60  1  0
 57 58  1  0
 59 89  1  0
 60 90  1  0
 61 62  1  0
 63 64  1  0
 65 66  1  0
 65101  1  0
 65102  1  0
 66101  1  0
 66102  1  0
 67 68  1  0
 69 70  1  0
 71 72  1  0
 73 74  1  0
 75 76  1  0
 77 78  1  0
 79 80  1  0
 81 82  1  0
 83 84  1  0
 85 86  1  0
 87 88  1  0
 97 98  1  0
 99100  1  0
101102  1  0
103104  1  0
105106  1  0
107108  1  0
109110  1  0
111112  1  0
113114  1  0
115116  1  0
M  END
$$$$
