9cdm_A_XEK_401
     RDKit          3D

 58 62  0  0  0  0  0  0  0  0999 V2000
    9.3840   -0.3600   20.7290 C   0  0  0  0  0  3  0  0  0  0  0  0
   14.3440    4.2720   21.7860 C   0  0  0  0  0  3  0  0  0  0  0  0
   15.3760    5.1720   21.6060 C   0  0  0  0  0  3  0  0  0  0  0  0
   15.5230    6.2330   22.4660 C   0  0  0  0  0  3  0  0  0  0  0  0
   14.6560    6.3980   23.5190 C   0  0  0  0  0  3  0  0  0  0  0  0
   13.6250    5.4920   23.6950 C   0  0  0  0  0  3  0  0  0  0  0  0
   11.5500    0.5680   22.6480 C   0  0  0  0  0  3  0  0  0  0  0  0
    9.5860   -2.4080   22.0050 C   0  0  0  0  0  3  0  0  0  0  0  0
    8.3470   -2.8780   21.5530 C   0  0  0  0  0  3  0  0  0  0  0  0
    7.7970   -4.1820   21.9970 C   0  0  0  0  0  3  0  0  0  0  0  0
    6.7890   -4.8680   21.1980 C   0  0  0  0  0  3  0  0  0  0  0  0
   10.1010   -1.1800   21.5990 C   0  0  0  0  0  3  0  0  0  0  0  0
    8.1930   -4.7420   23.1740 C   0  0  0  0  0  3  0  0  0  0  0  0
    8.1410   -6.4870   24.8910 C   0  0  0  0  0  0  0  0  0  0  0  0
    6.7340   -6.6150   22.9050 C   0  0  0  0  0  3  0  0  0  0  0  0
    7.6030   -2.0670   20.6970 C   0  0  0  0  0  3  0  0  0  0  0  0
    7.3340   -0.0370   19.3810 C   0  0  0  0  0  3  0  0  0  0  0  0
    6.2320    0.6720   19.7960 C   0  0  0  0  0  3  0  0  0  0  0  0
    5.5200    1.4090   18.8670 C   0  0  0  0  0  3  0  0  0  0  0  0
    5.9310    1.3940   17.5560 C   0  0  0  0  0  3  0  0  0  0  0  0
    7.6890    0.0040   18.0380 C   0  0  0  0  0  3  0  0  0  0  0  0
   11.4190   -0.7070   22.0870 C   0  0  0  0  0  3  0  0  0  0  0  0
   12.5490   -1.5140   21.9730 C   0  0  0  0  0  3  0  0  0  0  0  0
   13.7730   -1.0620   22.4230 C   0  0  0  0  0  3  0  0  0  0  0  0
   13.8840    0.1920   22.9930 C   0  0  0  0  0  3  0  0  0  0  0  0
   12.7840    1.0250   23.0990 C   0  0  0  0  0  3  0  0  0  0  0  0
   12.3300    3.4170   23.0230 C   0  0  0  0  0  0  0  0  0  0  0  0
   13.4410    4.4110   22.8320 C   0  0  0  0  0  3  0  0  0  0  0  0
   15.1630   -2.0780   22.3120 Cl  0  0  0  0  0  0  0  0  0  0  0  0
   12.5470    5.7490   25.0470 Cl  0  0  0  0  0  0  0  0  0  0  0  0
   15.1010    0.5980   23.4210 F   0  0  0  0  0  0  0  0  0  0  0  0
   12.4740   -2.3720   21.5870 H   0  0  0  0  0  0  0  0  0  0  0  0
    5.7180   -6.4860   21.2490 H   0  0  0  0  0  0  0  0  0  0  0  0
    8.8440   -4.3130   23.7050 H   0  0  0  0  0  0  0  0  0  0  0  0
    7.3750   -6.7950   25.4010 H   0  0  0  0  0  0  0  0  0  0  0  0
    8.6180   -5.8100   25.3970 H   0  0  0  0  0  0  0  0  0  0  0  0
    8.7330   -7.2350   24.7110 H   0  0  0  0  0  0  0  0  0  0  0  0
    6.7570   -2.3460   20.3830 H   0  0  0  0  0  0  0  0  0  0  0  0
    5.9650    0.6570   20.6950 H   0  0  0  0  0  0  0  0  0  0  0  0
    4.7680    1.9100   19.1340 H   0  0  0  0  0  0  0  0  0  0  0  0
    5.4400    1.8870   16.9210 H   0  0  0  0  0  0  0  0  0  0  0  0
    8.4440   -0.4870   17.7520 H   0  0  0  0  0  0  0  0  0  0  0  0
   11.6220    3.7970   23.5840 H   0  0  0  0  0  0  0  0  0  0  0  0
   11.9400    3.1680   22.1590 H   0  0  0  0  0  0  0  0  0  0  0  0
   14.2480    3.5470   21.1890 H   0  0  0  0  0  0  0  0  0  0  0  0
   15.9800    5.0580   20.8900 H   0  0  0  0  0  0  0  0  0  0  0  0
   16.2200    6.8500   22.3360 H   0  0  0  0  0  0  0  0  0  0  0  0
   14.7600    7.1170   24.1130 H   0  0  0  0  0  0  0  0  0  0  0  0
   10.7900    1.1260   22.7220 H   0  0  0  0  0  0  0  0  0  0  0  0
   10.0890   -2.9440   22.6050 H   0  0  0  0  0  0  0  0  0  0  0  0
    6.3250   -6.0560   21.7190 N   0  0  0  0  0  0  0  0  0  0  0  0
    7.6810   -5.9120   23.6200 N   0  0  0  0  0  0  0  0  0  0  0  0
    8.1020   -0.8430   20.2990 N   0  0  0  0  0  0  0  0  0  0  0  0
    7.0000    0.7110   17.1400 N   0  0  0  0  0  2  0  0  0  0  0  0
    9.7500    0.7390   20.3350 O   0  0  0  0  0  1  0  0  0  0  0  0
   12.9170    2.2700   23.6600 O   0  0  0  0  0  0  0  0  0  0  0  0
    6.3350   -4.4900   20.1210 O   0  0  0  0  0  1  0  0  0  0  0  0
    6.2820   -7.6770   23.3000 O   0  0  0  0  0  1  0  0  0  0  0  0
  1 12  1  0
  1 53  1  0
  1 55  1  0
  2  3  1  0
  2 28  1  0
  2 45  1  0
  3  4  1  0
  3 46  1  0
  4  5  1  0
  4 47  1  0
  5  6  1  0
  5 48  1  0
  6 28  1  0
  6 30  1  0
  7 22  1  0
  7 26  1  0
  7 49  1  0
  8  9  1  0
  8 12  1  0
  8 50  1  0
  9 10  1  0
  9 16  1  0
 10 11  1  0
 10 13  1  0
 11 51  1  0
 11 57  1  0
 12 22  1  0
 13 34  1  0
 13 52  1  0
 14 35  1  0
 14 36  1  0
 14 37  1  0
 14 52  1  0
 15 51  1  0
 15 52  1  0
 15 58  1  0
 16 38  1  0
 16 53  1  0
 17 18  1  0
 17 21  1  0
 17 53  1  0
 18 19  1  0
 18 39  1  0
 19 20  1  0
 19 40  1  0
 20 41  1  0
 20 54  1  0
 21 42  1  0
 21 54  1  0
 22 23  1  0
 23 24  1  0
 23 32  1  0
 24 25  1  0
 24 29  1  0
 25 26  1  0
 25 31  1  0
 26 56  1  0
 27 28  1  0
 27 43  1  0
 27 44  1  0
 27 56  1  0
 33 51  1  0
M  END
$$$$
