9du2_B_A15_401
     RDKit          3D

 31 33  0  0  0  0  0  0  0  0999 V2000
   13.1170   21.6000   28.0110 C   0  0  0  0  0  1  0  0  0  0  0  0
   11.8230   17.4550   27.0940 C   0  0  0  0  0  2  0  0  0  0  0  0
   11.5350   18.6970   26.4330 C   0  0  0  0  0  3  0  0  0  0  0  0
   11.1070   15.0130   26.6240 C   0  0  0  0  0  3  0  0  0  0  0  0
   11.8410   13.0980   27.9310 C   0  0  0  0  0  3  0  0  0  0  0  0
   12.9690   12.7550   28.9040 C   0  0  0  0  0  2  0  0  0  0  0  0
   10.4960   12.6090   28.4500 C   0  0  0  0  0  3  0  0  0  0  0  0
    8.7740   10.9260   28.3690 C   0  0  0  0  0  3  0  0  0  0  0  0
    8.7450    9.4980   28.7960 C   0  0  0  0  0  2  0  0  0  0  0  0
   11.8990   20.0390   26.6560 C   0  0  0  0  0  3  0  0  0  0  0  0
    7.9310   11.1490   27.1090 C   0  0  0  0  0  2  0  0  0  0  0  0
    6.4510   11.2560   27.4360 C   0  0  0  0  0  2  0  0  0  0  0  0
   11.4130   21.0380   25.8130 C   0  0  0  0  0  2  0  0  0  0  0  0
    5.2230   13.3910   26.1060 C   0  0  0  0  0  1  0  0  0  0  0  0
   14.3520   13.1370   28.3880 C   0  0  0  0  0  3  0  0  0  0  0  0
   14.8940   12.3940   27.2140 C   0  0  0  0  0  2  0  0  0  0  0  0
   15.4880   12.1920   28.5650 C   0  0  0  0  0  2  0  0  0  0  0  0
   10.5720   20.7160   24.7520 C   0  0  0  0  0  2  0  0  0  0  0  0
   10.1940   19.4000   24.5070 C   0  0  0  0  0  2  0  0  0  0  0  0
   10.6810   18.4050   25.3500 C   0  0  0  0  0  3  0  0  0  0  0  0
   11.1560   16.4640   26.4130 C   0  0  0  0  0  3  0  0  0  0  0  0
   11.7990   14.5300   27.6700 N   0  0  0  0  0  2  0  0  0  0  0  0
   10.1250   11.3850   28.0600 N   0  0  0  0  0  2  0  0  0  0  0  0
    8.0080    8.9360   29.7080 N   0  0  0  0  0  1  0  0  0  0  0  0
   10.4610   17.0230   25.3560 N   0  0  0  0  0  2  0  0  0  0  0  0
   10.4260   14.3050   25.9010 O   0  0  0  0  0  1  0  0  0  0  0  0
   12.7510   20.2480   27.7080 O   0  0  0  0  0  0  0  0  0  0  0  0
    9.8040   13.3300   29.1690 O   0  0  0  0  0  1  0  0  0  0  0  0
    4.2300   10.9880   26.1040 O   0  0  0  0  0  1  0  0  0  0  0  0
    6.2900   11.3860   24.8240 O   0  0  0  0  0  1  0  0  0  0  0  0
    5.4930   11.6620   25.9930 S   0  0  0  0  0  4  0  0  0  0  0  0
  1 27  1  0
  2  3  1  0
  2 21  1  0
  3 10  1  0
  3 20  1  0
  4 21  1  0
  4 22  1  0
  4 26  1  0
  5  6  1  0
  5  7  1  0
  5 22  1  0
  6 15  1  0
  7 23  1  0
  7 28  1  0
  8  9  1  0
  8 11  1  0
  8 23  1  0
  9 24  1  0
 10 13  1  0
 10 27  1  0
 11 12  1  0
 12 31  1  0
 13 18  1  0
 14 31  1  0
 15 16  1  0
 15 17  1  0
 16 17  1  0
 18 19  1  0
 19 20  1  0
 20 25  1  0
 21 25  1  0
 29 31  1  0
 30 31  1  0
M  END
$$$$
