9du2_A_A15_401
     RDKit          3D

 31 33  0  0  0  0  0  0  0  0999 V2000
  -24.7710  -13.7860   -4.0890 C   0  0  0  0  0  1  0  0  0  0  0  0
  -22.6210  -13.1990   -0.2690 C   0  0  0  0  0  2  0  0  0  0  0  0
  -22.8680  -12.3030   -1.3560 C   0  0  0  0  0  3  0  0  0  0  0  0
  -21.2430  -12.9760    1.9020 C   0  0  0  0  0  3  0  0  0  0  0  0
  -20.9750  -14.7120    3.5320 C   0  0  0  0  0  3  0  0  0  0  0  0
  -21.7040  -15.9840    3.9670 C   0  0  0  0  0  2  0  0  0  0  0  0
  -19.4550  -14.8270    3.4850 C   0  0  0  0  0  3  0  0  0  0  0  0
  -17.3500  -14.5740    4.7150 C   0  0  0  0  0  3  0  0  0  0  0  0
  -16.8650  -15.3120    5.9240 C   0  0  0  0  0  2  0  0  0  0  0  0
  -23.5300  -12.4090   -2.5890 C   0  0  0  0  0  3  0  0  0  0  0  0
  -16.9140  -13.1110    4.6760 C   0  0  0  0  0  2  0  0  0  0  0  0
  -15.4840  -12.9520    4.1710 C   0  0  0  0  0  2  0  0  0  0  0  0
  -23.5290  -11.3350   -3.4750 C   0  0  0  0  0  2  0  0  0  0  0  0
  -15.5790  -11.1070    2.0690 C   0  0  0  0  0  1  0  0  0  0  0  0
  -23.1910  -15.7490    4.2070 C   0  0  0  0  0  3  0  0  0  0  0  0
  -23.6050  -14.8520    5.3100 C   0  0  0  0  0  2  0  0  0  0  0  0
  -23.8450  -16.3170    5.4070 C   0  0  0  0  0  2  0  0  0  0  0  0
  -22.8720  -10.1530   -3.1440 C   0  0  0  0  0  2  0  0  0  0  0  0
  -22.2040  -10.0140   -1.9320 C   0  0  0  0  0  2  0  0  0  0  0  0
  -22.2090  -11.0940   -1.0500 C   0  0  0  0  0  3  0  0  0  0  0  0
  -21.8400  -12.5300    0.6460 C   0  0  0  0  0  3  0  0  0  0  0  0
  -21.5230  -14.2310    2.2720 N   0  0  0  0  0  2  0  0  0  0  0  0
  -18.8110  -14.6140    4.6410 N   0  0  0  0  0  2  0  0  0  0  0  0
  -15.7400  -15.9360    6.1540 N   0  0  0  0  0  1  0  0  0  0  0  0
  -21.5870  -11.2550    0.1830 N   0  0  0  0  0  2  0  0  0  0  0  0
  -20.4850  -12.2390    2.5570 O   0  0  0  0  0  1  0  0  0  0  0  0
  -24.1420  -13.6060   -2.8210 O   0  0  0  0  0  0  0  0  0  0  0  0
  -18.8810  -15.0990    2.4310 O   0  0  0  0  0  1  0  0  0  0  0  0
  -13.6730  -11.0960    3.8410 O   0  0  0  0  0  1  0  0  0  0  0  0
  -15.9250  -10.4020    4.5520 O   0  0  0  0  0  1  0  0  0  0  0  0
  -15.0990  -11.2670    3.7500 S   0  0  0  0  0  4  0  0  0  0  0  0
  1 27  1  0
  2  3  1  0
  2 21  1  0
  3 10  1  0
  3 20  1  0
  4 21  1  0
  4 22  1  0
  4 26  1  0
  5  6  1  0
  5  7  1  0
  5 22  1  0
  6 15  1  0
  7 23  1  0
  7 28  1  0
  8  9  1  0
  8 11  1  0
  8 23  1  0
  9 24  1  0
 10 13  1  0
 10 27  1  0
 11 12  1  0
 12 31  1  0
 13 18  1  0
 14 31  1  0
 15 16  1  0
 15 17  1  0
 16 17  1  0
 18 19  1  0
 19 20  1  0
 20 25  1  0
 21 25  1  0
 29 31  1  0
 30 31  1  0
M  END
$$$$
