9du4_A_A17_401
     RDKit          3D

 31 33  0  0  0  0  0  0  0  0999 V2000
    6.8210   -2.7800   49.9280 C   0  0  0  0  0  1  0  0  0  0  0  0
    5.3890   -5.5240   46.7520 C   0  0  0  0  0  2  0  0  0  0  0  0
    5.2290   -4.1100   46.9310 C   0  0  0  0  0  3  0  0  0  0  0  0
    4.6990   -7.1570   44.8470 C   0  0  0  0  0  3  0  0  0  0  0  0
    5.2130   -9.5480   44.8820 C   0  0  0  0  0  3  0  0  0  0  0  0
    6.0180  -10.5250   45.7430 C   0  0  0  0  0  2  0  0  0  0  0  0
    3.8020  -10.0850   44.6400 C   0  0  0  0  0  3  0  0  0  0  0  0
    2.3690  -11.4610   43.1740 C   0  0  0  0  0  3  0  0  0  0  0  0
    2.5970  -12.9400   42.9100 C   0  0  0  0  0  2  0  0  0  0  0  0
    5.6080   -3.1820   47.9120 C   0  0  0  0  0  3  0  0  0  0  0  0
    1.7550  -10.7530   41.9650 C   0  0  0  0  0  2  0  0  0  0  0  0
    1.2410   -9.3550   42.2880 C   0  0  0  0  0  2  0  0  0  0  0  0
    5.2950   -1.8380   47.7550 C   0  0  0  0  0  2  0  0  0  0  0  0
   -0.4290   -7.2360   41.5520 C   0  0  0  0  0  1  0  0  0  0  0  0
    7.4980  -10.1720   45.8780 C   0  0  0  0  0  3  0  0  0  0  0  0
    8.3660  -10.1430   44.6640 C   0  0  0  0  0  2  0  0  0  0  0  0
    8.5330  -11.2280   45.6740 C   0  0  0  0  0  2  0  0  0  0  0  0
    4.6070   -1.4060   46.6270 C   0  0  0  0  0  2  0  0  0  0  0  0
    4.2170   -2.2960   45.6350 C   0  0  0  0  0  2  0  0  0  0  0  0
    4.5330   -3.6390   45.7990 C   0  0  0  0  0  3  0  0  0  0  0  0
    4.8070   -5.8610   45.5560 C   0  0  0  0  0  3  0  0  0  0  0  0
    5.2120   -8.2220   45.4790 N   0  0  0  0  0  2  0  0  0  0  0  0
    3.6380  -10.8360   43.5440 N   0  0  0  0  0  2  0  0  0  0  0  0
    4.2850   -4.7260   44.9720 N   0  0  0  0  0  2  0  0  0  0  0  0
    4.1680   -7.2290   43.7390 O   0  0  0  0  0  1  0  0  0  0  0  0
    6.3020   -3.6990   48.9690 O   0  0  0  0  0  0  0  0  0  0  0  0
    2.8900   -9.8270   45.4200 O   0  0  0  0  0  1  0  0  0  0  0  0
    1.3780  -13.6020   42.6010 O   0  0  0  0  0  1  0  0  0  0  0  0
   -0.4130   -9.4990   40.2670 O   0  0  0  0  0  1  0  0  0  0  0  0
    1.5460   -8.0300   40.0540 O   0  0  0  0  0  1  0  0  0  0  0  0
    0.4940   -8.5650   40.8780 S   0  0  0  0  0  4  0  0  0  0  0  0
  1 26  1  0
  2  3  1  0
  2 21  1  0
  3 10  1  0
  3 20  1  0
  4 21  1  0
  4 22  1  0
  4 25  1  0
  5  6  1  0
  5  7  1  0
  5 22  1  0
  6 15  1  0
  7 23  1  0
  7 27  1  0
  8  9  1  0
  8 11  1  0
  8 23  1  0
  9 28  1  0
 10 13  1  0
 10 26  1  0
 11 12  1  0
 12 31  1  0
 13 18  1  0
 14 31  1  0
 15 16  1  0
 15 17  1  0
 16 17  1  0
 18 19  1  0
 19 20  1  0
 20 24  1  0
 21 24  1  0
 29 31  1  0
 30 31  1  0
M  END
$$$$
