9du4_B_A17_401
     RDKit          3D

 31 33  0  0  0  0  0  0  0  0999 V2000
  -17.0170   -5.2950   -5.5330 C   0  0  0  0  0  1  0  0  0  0  0  0
  -15.9380   -7.7350   -1.9860 C   0  0  0  0  0  2  0  0  0  0  0  0
  -15.8830   -6.3210   -2.2220 C   0  0  0  0  0  3  0  0  0  0  0  0
  -15.3480   -9.2050    0.0800 C   0  0  0  0  0  3  0  0  0  0  0  0
  -15.6040  -11.6310    0.1310 C   0  0  0  0  0  3  0  0  0  0  0  0
  -16.3140  -12.7150   -0.6830 C   0  0  0  0  0  2  0  0  0  0  0  0
  -14.1580  -12.0340    0.4240 C   0  0  0  0  0  3  0  0  0  0  0  0
  -12.6420  -13.2010    1.9840 C   0  0  0  0  0  3  0  0  0  0  0  0
  -12.7570  -14.6600    2.3960 C   0  0  0  0  0  2  0  0  0  0  0  0
  -16.1900   -5.4800   -3.3020 C   0  0  0  0  0  3  0  0  0  0  0  0
  -12.0900  -12.3300    3.1120 C   0  0  0  0  0  2  0  0  0  0  0  0
  -11.7180  -10.9250    2.6540 C   0  0  0  0  0  2  0  0  0  0  0  0
  -16.0140   -4.1070   -3.1850 C   0  0  0  0  0  2  0  0  0  0  0  0
  -10.2370   -8.6080    3.1620 C   0  0  0  0  0  1  0  0  0  0  0  0
  -17.8230  -12.5210   -0.8070 C   0  0  0  0  0  3  0  0  0  0  0  0
  -18.6690  -12.5060    0.4230 C   0  0  0  0  0  2  0  0  0  0  0  0
  -18.7440  -13.6600   -0.5180 C   0  0  0  0  0  2  0  0  0  0  0  0
  -15.5340   -3.5610   -2.0000 C   0  0  0  0  0  2  0  0  0  0  0  0
  -15.2210   -4.3630   -0.9110 C   0  0  0  0  0  2  0  0  0  0  0  0
  -15.3990   -5.7350   -1.0350 C   0  0  0  0  0  3  0  0  0  0  0  0
  -15.5010   -7.9600   -0.7060 C   0  0  0  0  0  3  0  0  0  0  0  0
  -15.6850  -10.3440   -0.5400 N   0  0  0  0  0  2  0  0  0  0  0  0
  -13.9540  -12.7160    1.5580 N   0  0  0  0  0  2  0  0  0  0  0  0
  -15.1720   -6.7540   -0.1220 N   0  0  0  0  0  2  0  0  0  0  0  0
  -14.9280   -9.1740    1.2350 O   0  0  0  0  0  1  0  0  0  0  0  0
  -16.6620   -6.1100   -4.4190 O   0  0  0  0  0  0  0  0  0  0  0  0
  -13.2550  -11.7350   -0.3530 O   0  0  0  0  0  1  0  0  0  0  0  0
  -11.4970  -15.1860    2.7910 O   0  0  0  0  0  1  0  0  0  0  0  0
  -10.0380  -10.7330    4.6490 O   0  0  0  0  0  1  0  0  0  0  0  0
  -12.1180   -9.4290    4.7610 O   0  0  0  0  0  1  0  0  0  0  0  0
  -11.0310   -9.9440    3.9710 S   0  0  0  0  0  4  0  0  0  0  0  0
  1 26  1  0
  2  3  1  0
  2 21  1  0
  3 10  1  0
  3 20  1  0
  4 21  1  0
  4 22  1  0
  4 25  1  0
  5  6  1  0
  5  7  1  0
  5 22  1  0
  6 15  1  0
  7 23  1  0
  7 27  1  0
  8  9  1  0
  8 11  1  0
  8 23  1  0
  9 28  1  0
 10 13  1  0
 10 26  1  0
 11 12  1  0
 12 31  1  0
 13 18  1  0
 14 31  1  0
 15 16  1  0
 15 17  1  0
 16 17  1  0
 18 19  1  0
 19 20  1  0
 20 24  1  0
 21 24  1  0
 29 31  1  0
 30 31  1  0
M  END
$$$$
