9e7b_A_A18_401
     RDKit          3D

 68 70  0  0  0  0  0  0  0  0999 V2000
    8.9240   23.2410   21.9380 C   0  0  0  0  0  0  0  0  0  0  0  0
    7.5720   27.5950   26.3520 C   0  0  0  0  0  3  0  0  0  0  0  0
    7.4190   27.2010   27.7060 C   0  0  0  0  0  3  0  0  0  0  0  0
    6.5360   27.9510   28.5170 C   0  0  0  0  0  3  0  0  0  0  0  0
    5.8250   29.0510   27.9880 C   0  0  0  0  0  3  0  0  0  0  0  0
    5.9740   29.4040   26.6600 C   0  0  0  0  0  3  0  0  0  0  0  0
    6.8750   28.6460   25.8260 C   0  0  0  0  0  3  0  0  0  0  0  0
    7.1180   28.9840   24.3620 C   0  0  0  0  0  0  0  0  0  0  0  0
    7.1170   27.7440   23.4890 C   0  0  0  0  0  0  0  0  0  0  0  0
    7.9110   27.9940   22.2370 C   0  0  0  0  0  3  0  0  0  0  0  0
    7.8010   28.8630   19.9040 C   0  0  0  0  0  0  0  0  0  0  0  0
    9.2580   23.5240   23.4520 C   0  0  0  0  0  0  0  0  0  0  0  0
    7.3860   30.2730   19.5130 C   0  0  0  0  0  2  0  0  0  0  0  0
    7.4250   27.9780   18.7430 C   0  0  0  0  0  0  0  0  0  0  0  0
    8.0000   26.5590   18.8700 C   0  0  0  0  0  0  0  0  0  0  0  0
    9.5070   26.4760   18.8910 C   0  0  0  0  0  0  0  0  0  0  0  0
    9.7560   25.1510   18.1790 C   0  0  0  0  0  0  0  0  0  0  0  0
    7.5590   25.7080   17.6940 C   0  0  0  0  0  3  0  0  0  0  0  0
    9.7620   22.2390   24.1530 C   0  0  0  0  0  0  0  0  0  0  0  0
   10.3680   24.6090   23.5190 C   0  0  0  0  0  0  0  0  0  0  0  0
    8.0520   24.0150   24.2140 C   0  0  0  0  0  0  0  0  0  0  0  0
    6.3090   22.8300   25.5230 C   0  0  0  0  0  3  0  0  0  0  0  0
    5.0860   21.9080   25.4700 C   0  0  0  0  0  0  0  0  0  0  0  0
    7.4460   25.2590   23.5530 C   0  0  0  0  0  3  0  0  0  0  0  0
    8.5100   26.8220   25.3760 C   0  0  0  0  0  0  0  0  0  0  0  0
    5.3330   20.7910   24.7910 F   0  0  0  0  0  0  0  0  0  0  0  0
    4.6890   21.5990   26.7060 F   0  0  0  0  0  0  0  0  0  0  0  0
    4.0860   22.5420   24.8130 F   0  0  0  0  0  0  0  0  0  0  0  0
    9.4650   22.3900   21.6090 H   0  0  0  0  0  0  0  0  0  0  0  0
    8.4770   24.1630   25.2170 H   0  0  0  0  0  0  0  0  0  0  0  0
    6.5590   22.7220   23.4310 H   0  0  0  0  0  0  0  0  0  0  0  0
    9.3770   27.4360   25.1310 H   0  0  0  0  0  0  0  0  0  0  0  0
    8.8050   25.8710   25.8210 H   0  0  0  0  0  0  0  0  0  0  0  0
    7.9540   26.3650   28.1010 H   0  0  0  0  0  0  0  0  0  0  0  0
    6.4030   27.6790   29.5590 H   0  0  0  0  0  0  0  0  0  0  0  0
    5.1430   29.6360   28.6420 H   0  0  0  0  0  0  0  0  0  0  0  0
    5.4150   30.2480   26.2450 H   0  0  0  0  0  0  0  0  0  0  0  0
    8.0940   29.4880   24.2670 H   0  0  0  0  0  0  0  0  0  0  0  0
    6.3250   29.6660   24.0140 H   0  0  0  0  0  0  0  0  0  0  0  0
    7.8830   23.0610   21.8340 H   0  0  0  0  0  0  0  0  0  0  0  0
    6.1080   27.5380   23.2210 H   0  0  0  0  0  0  0  0  0  0  0  0
    6.1760   28.6460   21.2370 H   0  0  0  0  0  0  0  0  0  0  0  0
    8.8430   28.7520   20.0850 H   0  0  0  0  0  0  0  0  0  0  0  0
    9.1040   31.0550   19.1010 H   0  0  0  0  0  0  0  0  0  0  0  0
    6.3560   27.9150   18.6890 H   0  0  0  0  0  0  0  0  0  0  0  0
    7.7930   28.4210   17.8380 H   0  0  0  0  0  0  0  0  0  0  0  0
    7.6510   26.1490   19.8240 H   0  0  0  0  0  0  0  0  0  0  0  0
    9.8800   26.4470   19.9070 H   0  0  0  0  0  0  0  0  0  0  0  0
    9.9500   27.3000   18.3450 H   0  0  0  0  0  0  0  0  0  0  0  0
    9.1970   24.0830   21.3520 H   0  0  0  0  0  0  0  0  0  0  0  0
   10.6610   25.2210   17.5660 H   0  0  0  0  0  0  0  0  0  0  0  0
    9.8500   24.3440   18.9130 H   0  0  0  0  0  0  0  0  0  0  0  0
    8.4630   24.0520   16.8070 H   0  0  0  0  0  0  0  0  0  0  0  0
   10.7730   22.0170   23.8200 H   0  0  0  0  0  0  0  0  0  0  0  0
    9.7600   22.3880   25.2290 H   0  0  0  0  0  0  0  0  0  0  0  0
    9.1070   21.4080   23.9010 H   0  0  0  0  0  0  0  0  0  0  0  0
   10.1210   25.4220   22.8450 H   0  0  0  0  0  0  0  0  0  0  0  0
   10.4420   24.9890   24.5330 H   0  0  0  0  0  0  0  0  0  0  0  0
   11.3180   24.1730   23.2270 H   0  0  0  0  0  0  0  0  0  0  0  0
    6.9140   23.1230   24.2600 N   0  0  0  0  0  0  0  0  0  0  0  0
    7.7100   26.5790   24.1610 N   0  0  0  0  0  0  0  0  0  0  0  0
    7.1370   28.5210   21.1440 N   0  0  0  0  0  0  0  0  0  0  0  0
    8.1400   31.1820   19.1360 N   0  0  0  0  0  2  0  0  0  0  0  0
    8.5940   24.9250   17.3310 N   0  0  0  0  0  0  0  0  0  0  0  0
    6.7320   23.2720   26.5590 O   0  0  0  0  0  1  0  0  0  0  0  0
    6.7700   25.2000   22.5700 O   0  0  0  0  0  1  0  0  0  0  0  0
    9.0800   27.7760   22.1500 O   0  0  0  0  0  1  0  0  0  0  0  0
    6.4820   25.7130   17.1880 O   0  0  0  0  0  1  0  0  0  0  0  0
  1 12  1  0
  1 29  1  0
  1 40  1  0
  1 50  1  0
  2  3  1  0
  2  7  1  0
  2 25  1  0
  3  4  1  0
  3 34  1  0
  4  5  1  0
  4 35  1  0
  5  6  1  0
  5 36  1  0
  6  7  1  0
  6 37  1  0
  7  8  1  0
  8  9  1  0
  8 38  1  0
  8 39  1  0
  9 10  1  0
  9 41  1  0
  9 61  1  0
 10 62  1  0
 10 67  1  0
 11 13  1  0
 11 14  1  0
 11 43  1  0
 11 62  1  0
 12 19  1  0
 12 20  1  0
 12 21  1  0
 13 63  1  0
 14 15  1  0
 14 45  1  0
 14 46  1  0
 15 16  1  0
 15 18  1  0
 15 47  1  0
 16 17  1  0
 16 48  1  0
 16 49  1  0
 17 51  1  0
 17 52  1  0
 17 64  1  0
 18 64  1  0
 18 68  1  0
 19 54  1  0
 19 55  1  0
 19 56  1  0
 20 57  1  0
 20 58  1  0
 20 59  1  0
 21 24  1  0
 21 30  1  0
 21 60  1  0
 22 23  1  0
 22 60  1  0
 22 65  1  0
 23 26  1  0
 23 27  1  0
 23 28  1  0
 24 61  1  0
 24 66  1  0
 25 32  1  0
 25 33  1  0
 25 61  1  0
 31 60  1  0
 42 62  1  0
 44 63  1  0
 53 64  1  0
M  END
$$$$
