9e8r_A_A18_401
     RDKit          3D

 68 70  0  0  0  0  0  0  0  0999 V2000
    9.7960   22.1790   24.1540 C   0  0  0  0  0  0  0  0  0  0  0  0
    7.4270   27.5530   26.3790 C   0  0  0  0  0  3  0  0  0  0  0  0
    7.2340   27.1910   27.7300 C   0  0  0  0  0  3  0  0  0  0  0  0
    6.3560   27.9700   28.5210 C   0  0  0  0  0  3  0  0  0  0  0  0
    5.6670   29.0630   27.9820 C   0  0  0  0  0  3  0  0  0  0  0  0
    5.8510   29.3920   26.6420 C   0  0  0  0  0  3  0  0  0  0  0  0
    6.7530   28.5970   25.8390 C   0  0  0  0  0  3  0  0  0  0  0  0
    7.0100   28.9290   24.3920 C   0  0  0  0  0  0  0  0  0  0  0  0
    7.0350   27.6720   23.5260 C   0  0  0  0  0  0  0  0  0  0  0  0
    7.8580   27.9250   22.2790 C   0  0  0  0  0  3  0  0  0  0  0  0
    7.7920   28.7920   19.9030 C   0  0  0  0  0  0  0  0  0  0  0  0
    9.2400   23.4970   23.4580 C   0  0  0  0  0  0  0  0  0  0  0  0
    7.3970   30.2460   19.5870 C   0  0  0  0  0  2  0  0  0  0  0  0
    7.4090   27.9040   18.7450 C   0  0  0  0  0  0  0  0  0  0  0  0
    8.0010   26.4900   18.8920 C   0  0  0  0  0  0  0  0  0  0  0  0
    9.5120   26.3970   18.9280 C   0  0  0  0  0  0  0  0  0  0  0  0
    9.7400   25.0890   18.1840 C   0  0  0  0  0  0  0  0  0  0  0  0
    7.5530   25.6480   17.7060 C   0  0  0  0  0  3  0  0  0  0  0  0
   10.2940   24.6220   23.5630 C   0  0  0  0  0  0  0  0  0  0  0  0
    8.9320   23.2180   21.9730 C   0  0  0  0  0  0  0  0  0  0  0  0
    8.0080   23.9330   24.2200 C   0  0  0  0  0  0  0  0  0  0  0  0
    6.3160   22.6440   25.4800 C   0  0  0  0  0  3  0  0  0  0  0  0
    5.1080   21.7110   25.3900 C   0  0  0  0  0  0  0  0  0  0  0  0
    7.4080   25.1880   23.5680 C   0  0  0  0  0  3  0  0  0  0  0  0
    8.3740   26.7300   25.4610 C   0  0  0  0  0  0  0  0  0  0  0  0
    4.1330   22.3710   24.7320 F   0  0  0  0  0  0  0  0  0  0  0  0
    5.4500   20.6110   24.7230 F   0  0  0  0  0  0  0  0  0  0  0  0
    4.6800   21.4140   26.6470 F   0  0  0  0  0  0  0  0  0  0  0  0
   10.8140   22.0410   23.8870 H   0  0  0  0  0  0  0  0  0  0  0  0
    8.4020   24.0400   25.2400 H   0  0  0  0  0  0  0  0  0  0  0  0
    6.5120   22.6940   23.3730 H   0  0  0  0  0  0  0  0  0  0  0  0
    9.2770   27.3050   25.2520 H   0  0  0  0  0  0  0  0  0  0  0  0
    8.6070   25.7750   25.9310 H   0  0  0  0  0  0  0  0  0  0  0  0
    7.7390   26.3470   28.1470 H   0  0  0  0  0  0  0  0  0  0  0  0
    6.2140   27.7160   29.5660 H   0  0  0  0  0  0  0  0  0  0  0  0
    4.9790   29.6620   28.6160 H   0  0  0  0  0  0  0  0  0  0  0  0
    5.3190   30.2420   26.2030 H   0  0  0  0  0  0  0  0  0  0  0  0
    7.9810   29.4430   24.3070 H   0  0  0  0  0  0  0  0  0  0  0  0
    6.2140   29.6000   24.0290 H   0  0  0  0  0  0  0  0  0  0  0  0
    9.7170   22.2750   25.2070 H   0  0  0  0  0  0  0  0  0  0  0  0
    6.0300   27.4580   23.2500 H   0  0  0  0  0  0  0  0  0  0  0  0
    6.1470   28.5660   21.2350 H   0  0  0  0  0  0  0  0  0  0  0  0
    8.8400   28.6620   20.0300 H   0  0  0  0  0  0  0  0  0  0  0  0
    8.0630   31.9530   18.9410 H   0  0  0  0  0  0  0  0  0  0  0  0
    6.3400   27.8330   18.6980 H   0  0  0  0  0  0  0  0  0  0  0  0
    7.7690   28.3410   17.8350 H   0  0  0  0  0  0  0  0  0  0  0  0
    7.6680   26.0860   19.8550 H   0  0  0  0  0  0  0  0  0  0  0  0
    9.8770   26.3370   19.9460 H   0  0  0  0  0  0  0  0  0  0  0  0
    9.9690   27.2290   18.4070 H   0  0  0  0  0  0  0  0  0  0  0  0
    9.2290   21.3430   23.8310 H   0  0  0  0  0  0  0  0  0  0  0  0
   10.6430   25.1650   17.5690 H   0  0  0  0  0  0  0  0  0  0  0  0
    9.8310   24.2660   18.9010 H   0  0  0  0  0  0  0  0  0  0  0  0
    8.4320   24.0140   16.7840 H   0  0  0  0  0  0  0  0  0  0  0  0
   11.2500   24.2590   23.1950 H   0  0  0  0  0  0  0  0  0  0  0  0
    9.9750   25.4730   22.9660 H   0  0  0  0  0  0  0  0  0  0  0  0
   10.3970   24.9270   24.6010 H   0  0  0  0  0  0  0  0  0  0  0  0
    8.9040   24.1560   21.4270 H   0  0  0  0  0  0  0  0  0  0  0  0
    9.7050   22.5810   21.5560 H   0  0  0  0  0  0  0  0  0  0  0  0
    7.9710   22.7230   21.8890 H   0  0  0  0  0  0  0  0  0  0  0  0
    6.8850   23.0350   24.2210 N   0  0  0  0  0  0  0  0  0  0  0  0
    7.6270   26.5020   24.2100 N   0  0  0  0  0  0  0  0  0  0  0  0
    7.1090   28.4450   21.1590 N   0  0  0  0  0  0  0  0  0  0  0  0
    8.2480   31.0170   19.1470 N   0  0  0  0  0  2  0  0  0  0  0  0
    8.5670   24.8750   17.3250 N   0  0  0  0  0  0  0  0  0  0  0  0
    6.7640   23.0480   26.5190 O   0  0  0  0  0  1  0  0  0  0  0  0
    6.7530   25.1540   22.5570 O   0  0  0  0  0  1  0  0  0  0  0  0
    9.0400   27.7180   22.2020 O   0  0  0  0  0  1  0  0  0  0  0  0
    6.4910   25.6600   17.1880 O   0  0  0  0  0  1  0  0  0  0  0  0
  1 12  1  0
  1 29  1  0
  1 40  1  0
  1 50  1  0
  2  3  1  0
  2  7  1  0
  2 25  1  0
  3  4  1  0
  3 34  1  0
  4  5  1  0
  4 35  1  0
  5  6  1  0
  5 36  1  0
  6  7  1  0
  6 37  1  0
  7  8  1  0
  8  9  1  0
  8 38  1  0
  8 39  1  0
  9 10  1  0
  9 41  1  0
  9 61  1  0
 10 62  1  0
 10 67  1  0
 11 13  1  0
 11 14  1  0
 11 43  1  0
 11 62  1  0
 12 19  1  0
 12 20  1  0
 12 21  1  0
 13 63  1  0
 14 15  1  0
 14 45  1  0
 14 46  1  0
 15 16  1  0
 15 18  1  0
 15 47  1  0
 16 17  1  0
 16 48  1  0
 16 49  1  0
 17 51  1  0
 17 52  1  0
 17 64  1  0
 18 64  1  0
 18 68  1  0
 19 54  1  0
 19 55  1  0
 19 56  1  0
 20 57  1  0
 20 58  1  0
 20 59  1  0
 21 24  1  0
 21 30  1  0
 21 60  1  0
 22 23  1  0
 22 60  1  0
 22 65  1  0
 23 26  1  0
 23 27  1  0
 23 28  1  0
 24 61  1  0
 24 66  1  0
 25 32  1  0
 25 33  1  0
 25 61  1  0
 31 60  1  0
 42 62  1  0
 44 63  1  0
 53 64  1  0
M  END
$$$$
