9eev_A_4WI_401
     RDKit          3D

 35 37  0  0  0  0  0  0  0  0999 V2000
   42.2990  -27.0190  -13.8370 C   0  0  0  0  0  3  0  0  0  0  0  0
   43.7590  -25.3240  -15.9480 C   0  0  0  0  0  2  0  0  0  0  0  0
   43.3530  -26.4050  -16.9270 C   0  0  0  0  0  3  0  0  0  0  0  0
   42.0910  -27.0630  -16.3930 C   0  0  0  0  0  3  0  0  0  0  0  0
   41.9660  -23.8660  -15.0700 C   0  0  0  0  0  3  0  0  0  0  0  0
   42.8420  -22.6630  -15.4250 C   0  0  0  0  0  3  0  0  0  0  0  0
   43.6860  -22.0450  -14.2950 C   0  0  0  0  0  0  0  0  0  0  0  0
   45.0390  -21.5830  -14.8750 C   0  0  0  0  0  1  0  0  0  0  0  0
   43.9320  -23.0900  -13.1790 C   0  0  0  0  0  1  0  0  0  0  0  0
   42.2410  -26.7580  -17.8690 C   0  0  0  0  0  0  0  0  0  0  0  0
   41.5070  -25.5450  -18.4860 C   0  0  0  0  0  1  0  0  0  0  0  0
   41.9090  -27.4160  -11.3920 C   0  0  0  0  0  3  0  0  0  0  0  0
   42.3860  -27.9720  -18.8000 C   0  0  0  0  0  1  0  0  0  0  0  0
   41.9310  -21.5530  -17.3470 C   0  0  0  0  0  3  0  0  0  0  0  0
   40.9830  -20.4650  -17.8540 C   0  0  0  0  0  0  0  0  0  0  0  0
   42.9480  -20.8150  -13.6960 C   0  0  0  0  0  1  0  0  0  0  0  0
   42.1580  -28.9160  -11.4790 C   0  0  0  0  0  2  0  0  0  0  0  0
   40.7300  -27.1720  -10.4340 C   0  0  0  0  0  2  0  0  0  0  0  0
   40.6520  -25.6580  -10.0970 C   0  0  0  0  0  3  0  0  0  0  0  0
   41.8930  -25.0240   -9.4390 C   0  0  0  0  0  2  0  0  0  0  0  0
   41.3430  -24.1360   -8.3250 C   0  0  0  0  0  2  0  0  0  0  0  0
   39.5180  -25.3920   -9.1150 C   0  0  0  0  0  3  0  0  0  0  0  0
   41.7400  -26.3090  -15.0930 C   0  0  0  0  0  3  0  0  0  0  0  0
   40.4600  -20.7910  -19.0790 F   0  0  0  0  0  0  0  0  0  0  0  0
   41.6370  -19.2720  -17.9170 F   0  0  0  0  0  0  0  0  0  0  0  0
   40.0080  -20.3700  -16.9100 F   0  0  0  0  0  0  0  0  0  0  0  0
   41.5840  -26.8510  -12.7100 N   0  0  0  0  0  2  0  0  0  0  0  0
   39.9550  -24.5560   -8.1750 N   0  0  0  0  0  2  0  0  0  0  0  0
   42.4540  -25.0770  -15.3330 N   0  0  0  0  0  0  0  0  0  0  0  0
   41.9860  -21.6710  -16.0210 N   0  0  0  0  0  2  0  0  0  0  0  0
   41.8620  -29.6600  -10.5060 N   0  0  0  0  0  1  0  0  0  0  0  0
   38.3860  -25.8670   -9.1800 O   0  0  0  0  0  1  0  0  0  0  0  0
   43.3350  -27.6820  -13.9020 O   0  0  0  0  0  1  0  0  0  0  0  0
   40.8860  -23.7450  -14.5870 O   0  0  0  0  0  1  0  0  0  0  0  0
   42.5800  -22.2440  -18.1110 O   0  0  0  0  0  1  0  0  0  0  0  0
  1 23  1  0
  1 27  1  0
  1 33  1  0
  2  3  1  0
  2 29  1  0
  3  4  1  0
  3 10  1  0
  4 10  1  0
  4 23  1  0
  5  6  1  0
  5 29  1  0
  5 34  1  0
  6  7  1  0
  6 30  1  0
  7  8  1  0
  7  9  1  0
  7 16  1  0
 10 11  1  0
 10 13  1  0
 12 17  1  0
 12 18  1  0
 12 27  1  0
 14 15  1  0
 14 30  1  0
 14 35  1  0
 15 24  1  0
 15 25  1  0
 15 26  1  0
 17 31  1  0
 18 19  1  0
 19 20  1  0
 19 22  1  0
 20 21  1  0
 21 28  1  0
 22 28  1  0
 22 32  1  0
 23 29  1  0
M  END
$$$$
