9g0h_A_A19_402
     RDKit          3D

 67 72  0  0  0  0  0  0  0  0999 V2000
  -20.8790    4.9360   27.3960 C   0  0  0  0  0  0  0  0  0  0  0  0
  -21.4090    5.9940   28.3490 C   0  0  0  0  0  0  0  0  0  0  0  0
  -23.7410    4.7850   28.8300 C   0  0  0  0  0  0  0  0  0  0  0  0
  -23.3020    4.3490   30.2140 C   0  0  0  0  0  3  0  0  0  0  0  0
  -23.2220    5.2610   31.2590 C   0  0  0  0  0  3  0  0  0  0  0  0
  -22.8260    4.8550   32.5220 C   0  0  0  0  0  3  0  0  0  0  0  0
  -22.5030    3.5290   32.7630 C   0  0  0  0  0  3  0  0  0  0  0  0
  -22.5910    2.6500   31.7160 C   0  0  0  0  0  3  0  0  0  0  0  0
  -20.4730    5.4070   24.9630 C   0  0  0  0  0  3  0  0  0  0  0  0
  -22.9790    3.0190   30.4530 C   0  0  0  0  0  3  0  0  0  0  0  0
  -25.2060    5.1160   28.7920 C   0  0  0  0  0  3  0  0  0  0  0  0
  -26.2240    4.5330   28.0970 C   0  0  0  0  0  3  0  0  0  0  0  0
  -28.6540    5.1640   27.8140 C   0  0  0  0  0  0  0  0  0  0  0  0
  -29.0500    6.4050   27.0270 C   0  0  0  0  0  0  0  0  0  0  0  0
  -27.9770    6.8270   26.0570 C   0  0  0  0  0  3  0  0  0  0  0  0
  -27.2900    8.0050   26.1040 C   0  0  0  0  0  3  0  0  0  0  0  0
  -18.9940    5.4670   25.1850 C   0  0  0  0  0  3  0  0  0  0  0  0
  -26.5310    6.5920   24.2340 C   0  0  0  0  0  3  0  0  0  0  0  0
  -27.5330    6.0140   24.9720 C   0  0  0  0  0  3  0  0  0  0  0  0
  -23.1830    6.5150   26.9200 C   0  0  0  0  0  0  0  0  0  0  0  0
  -22.3030    7.7670   26.9280 C   0  0  0  0  0  0  0  0  0  0  0  0
  -21.1240    7.4200   27.8670 C   0  0  0  0  0  0  0  0  0  0  0  0
  -22.7270    5.4760   25.9060 C   0  0  0  0  0  0  0  0  0  0  0  0
  -18.2070    4.3370   25.3580 C   0  0  0  0  0  3  0  0  0  0  0  0
  -16.2850    5.5760   25.4800 C   0  0  0  0  0  3  0  0  0  0  0  0
  -16.9660    6.7720   25.3170 C   0  0  0  0  0  3  0  0  0  0  0  0
  -16.2500    8.0990   25.2940 C   0  0  0  0  0  0  0  0  0  0  0  0
  -18.3420    6.6940   25.1700 C   0  0  0  0  0  3  0  0  0  0  0  0
  -22.2780    1.3430   31.9350 F   0  0  0  0  0  0  0  0  0  0  0  0
  -19.9030    4.8950   27.4640 H   0  0  0  0  0  0  0  0  0  0  0  0
  -21.2230    4.0590   27.6600 H   0  0  0  0  0  0  0  0  0  0  0  0
  -21.1010    5.8170   29.2620 H   0  0  0  0  0  0  0  0  0  0  0  0
  -23.5900    4.0520   28.1990 H   0  0  0  0  0  0  0  0  0  0  0  0
  -23.4410    6.2060   31.1280 H   0  0  0  0  0  0  0  0  0  0  0  0
  -22.7720    5.5040   33.2530 H   0  0  0  0  0  0  0  0  0  0  0  0
  -22.2210    3.2210   33.6490 H   0  0  0  0  0  0  0  0  0  0  0  0
  -23.0160    2.3280   29.7600 H   0  0  0  0  0  0  0  0  0  0  0  0
  -26.2650    3.7480   27.5120 H   0  0  0  0  0  0  0  0  0  0  0  0
  -29.2660    5.0100   28.5620 H   0  0  0  0  0  0  0  0  0  0  0  0
  -28.6740    4.3650   27.2470 H   0  0  0  0  0  0  0  0  0  0  0  0
  -29.8820    6.2390   26.5400 H   0  0  0  0  0  0  0  0  0  0  0  0
  -29.2400    7.1420   27.6420 H   0  0  0  0  0  0  0  0  0  0  0  0
  -27.3920    8.7420   26.7410 H   0  0  0  0  0  0  0  0  0  0  0  0
  -26.0650    6.2380   23.4490 H   0  0  0  0  0  0  0  0  0  0  0  0
  -27.8930    5.1290   24.7580 H   0  0  0  0  0  0  0  0  0  0  0  0
  -24.1370    6.7020   26.8000 H   0  0  0  0  0  0  0  0  0  0  0  0
  -21.9840    7.9920   26.0300 H   0  0  0  0  0  0  0  0  0  0  0  0
  -22.7920    8.5510   27.2510 H   0  0  0  0  0  0  0  0  0  0  0  0
  -21.0730    8.0510   28.6140 H   0  0  0  0  0  0  0  0  0  0  0  0
  -20.2700    7.4770   27.3920 H   0  0  0  0  0  0  0  0  0  0  0  0
  -23.1770    4.6170   26.0430 H   0  0  0  0  0  0  0  0  0  0  0  0
  -22.9160    5.7600   24.9890 H   0  0  0  0  0  0  0  0  0  0  0  0
  -18.5970    3.4390   25.3820 H   0  0  0  0  0  0  0  0  0  0  0  0
  -15.3130    5.5550   25.5900 H   0  0  0  0  0  0  0  0  0  0  0  0
  -15.7460    8.1940   24.4600 H   0  0  0  0  0  0  0  0  0  0  0  0
  -15.6300    8.1580   26.0490 H   0  0  0  0  0  0  0  0  0  0  0  0
  -16.8990    8.8300   25.3580 H   0  0  0  0  0  0  0  0  0  0  0  0
  -18.8660    7.5130   25.0540 H   0  0  0  0  0  0  0  0  0  0  0  0
  -23.2090    6.5450   28.9150 H   0  0  0  0  0  0  0  0  0  0  0  0
  -21.2860    5.2580   26.0270 N   0  0  0  0  0  0  0  0  0  0  0  0
  -22.9280    5.9650   28.3120 N   0  0  0  0  0  4  0  0  0  0  0  0
  -27.3050    5.2860   28.3620 N   0  0  0  0  0  0  0  0  0  0  0  0
  -26.9920    6.2980   29.1880 N   0  0  0  0  0  2  0  0  0  0  0  0
  -25.7120    6.1950   29.4510 N   0  0  0  0  0  2  0  0  0  0  0  0
  -16.8760    4.3760   25.5030 N   0  0  0  0  0  2  0  0  0  0  0  0
  -20.9120    5.5180   23.8330 O   0  0  0  0  0  1  0  0  0  0  0  0
  -26.1310    8.1300   24.8640 S   0  0  0  0  0  0  0  0  0  0  0  0
  1  2  1  0
  1 30  1  0
  1 31  1  0
  1 60  1  0
  2 22  1  0
  2 32  1  0
  2 61  1  0
  3  4  1  0
  3 11  1  0
  3 33  1  0
  3 61  1  0
  4  5  1  0
  4 10  1  0
  5  6  1  0
  5 34  1  0
  6  7  1  0
  6 35  1  0
  7  8  1  0
  7 36  1  0
  8 10  1  0
  8 29  1  0
  9 17  1  0
  9 60  1  0
  9 66  1  0
 10 37  1  0
 11 12  1  0
 11 64  1  0
 12 38  1  0
 12 62  1  0
 13 14  1  0
 13 39  1  0
 13 40  1  0
 13 62  1  0
 14 15  1  0
 14 41  1  0
 14 42  1  0
 15 16  1  0
 15 19  1  0
 16 43  1  0
 16 67  1  0
 17 24  1  0
 17 28  1  0
 18 19  1  0
 18 44  1  0
 18 67  1  0
 19 45  1  0
 20 21  1  0
 20 23  1  0
 20 46  1  0
 20 61  1  0
 21 22  1  0
 21 47  1  0
 21 48  1  0
 22 49  1  0
 22 50  1  0
 23 51  1  0
 23 52  1  0
 23 60  1  0
 24 53  1  0
 24 65  1  0
 25 26  1  0
 25 54  1  0
 25 65  1  0
 26 27  1  0
 26 28  1  0
 27 55  1  0
 27 56  1  0
 27 57  1  0
 28 58  1  0
 59 61  1  0
 62 63  1  0
 63 64  1  0
M  END
$$$$
