9g0i_A_A20_403
     RDKit          3D

 60 64  0  0  0  0  0  0  0  0999 V2000
  -20.4180    4.5010   27.5270 C   0  0  0  0  0  0  0  0  0  0  0  0
  -21.1500    5.3350   28.5550 C   0  0  0  0  0  0  0  0  0  0  0  0
  -23.4440    5.2560   29.7620 C   0  0  0  0  0  0  0  0  0  0  0  0
  -23.0420    4.3940   30.9250 C   0  0  0  0  0  3  0  0  0  0  0  0
  -22.9780    4.9290   32.2110 C   0  0  0  0  0  3  0  0  0  0  0  0
  -22.5720    4.1560   33.2830 C   0  0  0  0  0  3  0  0  0  0  0  0
  -22.2190    2.8290   33.0940 C   0  0  0  0  0  3  0  0  0  0  0  0
  -22.2890    2.3220   31.8240 C   0  0  0  0  0  3  0  0  0  0  0  0
  -20.1580    5.1150   25.1150 C   0  0  0  0  0  3  0  0  0  0  0  0
  -22.6860    3.0630   30.7390 C   0  0  0  0  0  3  0  0  0  0  0  0
  -24.8800    5.1050   29.4230 C   0  0  0  0  0  3  0  0  0  0  0  0
  -25.5650    4.0110   28.9880 C   0  0  0  0  0  3  0  0  0  0  0  0
  -27.9470    3.6580   28.2600 C   0  0  0  0  0  0  0  0  0  0  0  0
  -28.2290    4.0010   26.8060 C   0  0  0  0  0  0  0  0  0  0  0  0
  -27.0320    3.9150   25.8900 C   0  0  0  0  0  1  0  0  0  0  0  0
  -18.6810    5.2770   25.2920 C   0  0  0  0  0  3  0  0  0  0  0  0
  -23.0350    5.5520   27.1790 C   0  0  0  0  0  0  0  0  0  0  0  0
  -22.4770    6.9660   27.3090 C   0  0  0  0  0  0  0  0  0  0  0  0
  -21.2080    6.8190   28.1800 C   0  0  0  0  0  0  0  0  0  0  0  0
  -22.3700    4.7540   26.0600 C   0  0  0  0  0  0  0  0  0  0  0  0
  -17.8450    4.1770   25.3890 C   0  0  0  0  0  3  0  0  0  0  0  0
  -15.9700    5.4880   25.5030 C   0  0  0  0  0  3  0  0  0  0  0  0
  -16.7050    6.6600   25.4150 C   0  0  0  0  0  3  0  0  0  0  0  0
  -16.0420    8.0100   25.4370 C   0  0  0  0  0  0  0  0  0  0  0  0
  -18.0820    6.5300   25.3100 C   0  0  0  0  0  3  0  0  0  0  0  0
  -22.0150    1.0090   31.6390 F   0  0  0  0  0  0  0  0  0  0  0  0
  -19.4580    4.6810   27.5870 H   0  0  0  0  0  0  0  0  0  0  0  0
  -20.5460    3.5520   27.7290 H   0  0  0  0  0  0  0  0  0  0  0  0
  -20.7920    5.1700   29.4510 H   0  0  0  0  0  0  0  0  0  0  0  0
  -23.2890    6.1920   30.0030 H   0  0  0  0  0  0  0  0  0  0  0  0
  -23.2180    5.8620   32.3850 H   0  0  0  0  0  0  0  0  0  0  0  0
  -22.5310    4.5420   34.1820 H   0  0  0  0  0  0  0  0  0  0  0  0
  -21.9290    2.2650   33.8390 H   0  0  0  0  0  0  0  0  0  0  0  0
  -22.7050    2.6240   29.8640 H   0  0  0  0  0  0  0  0  0  0  0  0
  -25.2920    3.0850   28.8240 H   0  0  0  0  0  0  0  0  0  0  0  0
  -28.7230    3.8550   28.8240 H   0  0  0  0  0  0  0  0  0  0  0  0
  -27.7420    2.7060   28.3630 H   0  0  0  0  0  0  0  0  0  0  0  0
  -28.9280    3.4050   26.4660 H   0  0  0  0  0  0  0  0  0  0  0  0
  -28.5980    4.9060   26.7560 H   0  0  0  0  0  0  0  0  0  0  0  0
  -24.0080    5.5090   27.0800 H   0  0  0  0  0  0  0  0  0  0  0  0
  -22.2620    7.3520   26.4350 H   0  0  0  0  0  0  0  0  0  0  0  0
  -23.1220    7.5730   27.7260 H   0  0  0  0  0  0  0  0  0  0  0  0
  -21.2600    7.3890   28.9740 H   0  0  0  0  0  0  0  0  0  0  0  0
  -20.4100    7.0970   27.6850 H   0  0  0  0  0  0  0  0  0  0  0  0
  -22.6380    3.8120   26.0810 H   0  0  0  0  0  0  0  0  0  0  0  0
  -22.6090    5.1040   25.1770 H   0  0  0  0  0  0  0  0  0  0  0  0
  -18.1970    3.2640   25.3850 H   0  0  0  0  0  0  0  0  0  0  0  0
  -14.9940    5.5040   25.5780 H   0  0  0  0  0  0  0  0  0  0  0  0
  -16.7200    8.7160   25.4590 H   0  0  0  0  0  0  0  0  0  0  0  0
  -15.4900    8.1250   24.6360 H   0  0  0  0  0  0  0  0  0  0  0  0
  -15.4730    8.0910   26.2290 H   0  0  0  0  0  0  0  0  0  0  0  0
  -18.6430    7.3300   25.2480 H   0  0  0  0  0  0  0  0  0  0  0  0
  -22.7100    4.0840   28.4480 H   0  0  0  0  0  0  0  0  0  0  0  0
  -20.9150    4.8120   26.1900 N   0  0  0  0  0  0  0  0  0  0  0  0
  -22.6170    4.9600   28.5160 N   0  0  0  0  0  4  0  0  0  0  0  0
  -26.8190    4.4110   28.7870 N   0  0  0  0  0  0  0  0  0  0  0  0
  -26.9490    5.7340   29.0870 N   0  0  0  0  0  2  0  0  0  0  0  0
  -25.7670    6.1380   29.4690 N   0  0  0  0  0  2  0  0  0  0  0  0
  -16.5100    4.2650   25.4940 N   0  0  0  0  0  2  0  0  0  0  0  0
  -20.6450    5.2430   24.0140 O   0  0  0  0  0  1  0  0  0  0  0  0
  1  2  1  0
  1 27  1  0
  1 28  1  0
  1 54  1  0
  2 19  1  0
  2 29  1  0
  2 55  1  0
  3  4  1  0
  3 11  1  0
  3 30  1  0
  3 55  1  0
  4  5  1  0
  4 10  1  0
  5  6  1  0
  5 31  1  0
  6  7  1  0
  6 32  1  0
  7  8  1  0
  7 33  1  0
  8 10  1  0
  8 26  1  0
  9 16  1  0
  9 54  1  0
  9 60  1  0
 10 34  1  0
 11 12  1  0
 11 58  1  0
 12 35  1  0
 12 56  1  0
 13 14  1  0
 13 36  1  0
 13 37  1  0
 13 56  1  0
 14 15  1  0
 14 38  1  0
 14 39  1  0
 16 21  1  0
 16 25  1  0
 17 18  1  0
 17 20  1  0
 17 40  1  0
 17 55  1  0
 18 19  1  0
 18 41  1  0
 18 42  1  0
 19 43  1  0
 19 44  1  0
 20 45  1  0
 20 46  1  0
 20 54  1  0
 21 47  1  0
 21 59  1  0
 22 23  1  0
 22 48  1  0
 22 59  1  0
 23 24  1  0
 23 25  1  0
 24 49  1  0
 24 50  1  0
 24 51  1  0
 25 52  1  0
 53 55  1  0
 56 57  1  0
 57 58  1  0
M  END
$$$$
