9gij_A_A22_401
     RDKit          3D

 35 38  0  0  0  0  0  0  0  0999 V2000
  -24.3820  -16.0960    6.2900 C   0  0  0  0  0  2  0  0  0  0  0  0
  -23.6120  -15.0770    5.8090 C   0  0  0  0  0  2  0  0  0  0  0  0
  -22.2430  -14.9760    6.1680 C   0  0  0  0  0  3  0  0  0  0  0  0
  -22.0900  -11.8120    2.5430 C   0  0  0  0  0  2  0  0  0  0  0  0
  -21.5810  -12.2450    1.1440 C   0  0  0  0  0  2  0  0  0  0  0  0
  -20.4290  -13.2190    1.4730 C   0  0  0  0  0  2  0  0  0  0  0  0
  -20.9230  -13.9110    2.7540 C   0  0  0  0  0  3  0  0  0  0  0  0
  -21.8530  -15.1240    2.4940 C   0  0  0  0  0  2  0  0  0  0  0  0
  -21.8320  -12.8200    4.8080 C   0  0  0  0  0  3  0  0  0  0  0  0
  -21.0890  -16.2190    1.7560 C   0  0  0  0  0  3  0  0  0  0  0  0
  -23.1510  -17.0610    0.7150 C   0  0  0  0  0  1  0  0  0  0  0  0
  -20.9280  -18.1360    0.1760 C   0  0  0  0  0  3  0  0  0  0  0  0
  -21.1060  -17.9290   -1.3560 C   0  0  0  0  0  2  0  0  0  0  0  0
  -20.5650  -16.5620   -1.6870 C   0  0  0  0  0  3  0  0  0  0  0  0
  -21.4130  -15.4820   -1.8830 C   0  0  0  0  0  2  0  0  0  0  0  0
  -20.8750  -14.2300   -2.1590 C   0  0  0  0  0  2  0  0  0  0  0  0
  -21.3490  -13.9160    5.7020 C   0  0  0  0  0  3  0  0  0  0  0  0
  -19.4940  -14.0600   -2.2420 C   0  0  0  0  0  3  0  0  0  0  0  0
  -18.6490  -15.1410   -2.0470 C   0  0  0  0  0  2  0  0  0  0  0  0
  -19.1870  -16.3880   -1.7760 C   0  0  0  0  0  2  0  0  0  0  0  0
  -21.2460  -19.5470    0.6270 C   0  0  0  0  0  3  0  0  0  0  0  0
  -21.9970  -21.1650    2.3160 C   0  0  0  0  0  1  0  0  0  0  0  0
  -20.0100  -13.9450    6.1300 C   0  0  0  0  0  2  0  0  0  0  0  0
  -20.3180  -15.8760    7.3970 C   0  0  0  0  0  2  0  0  0  0  0  0
  -21.6910  -15.9620    7.0300 C   0  0  0  0  0  3  0  0  0  0  0  0
  -22.5230  -16.9940    7.4980 C   0  0  0  0  0  2  0  0  0  0  0  0
  -23.8360  -17.0600    7.1390 C   0  0  0  0  0  2  0  0  0  0  0  0
  -18.8160  -12.4990   -2.5840 Cl  0  0  0  0  0  0  0  0  0  0  0  0
  -21.6320  -12.8560    3.4860 N   0  0  0  0  0  0  0  0  0  0  0  0
  -21.6960  -17.1090    0.9180 N   0  0  0  0  0  0  0  0  0  0  0  0
  -21.7250  -19.7900    1.8650 N   0  0  0  0  0  2  0  0  0  0  0  0
  -19.5440  -14.9020    6.9440 N   0  0  0  0  0  2  0  0  0  0  0  0
  -22.4540  -11.8780    5.2630 O   0  0  0  0  0  1  0  0  0  0  0  0
  -19.8750  -16.2810    1.9150 O   0  0  0  0  0  1  0  0  0  0  0  0
  -21.0150  -20.4840   -0.1250 O   0  0  0  0  0  1  0  0  0  0  0  0
  1  2  1  0
  1 27  1  0
  2  3  1  0
  3 17  1  0
  3 25  1  0
  4  5  1  0
  4 29  1  0
  5  6  1  0
  6  7  1  0
  7  8  1  0
  7 29  1  0
  8 10  1  0
  9 17  1  0
  9 29  1  0
  9 33  1  0
 10 30  1  0
 10 34  1  0
 11 30  1  0
 12 13  1  0
 12 21  1  0
 12 30  1  0
 13 14  1  0
 14 15  1  0
 14 20  1  0
 15 16  1  0
 16 18  1  0
 17 23  1  0
 18 19  1  0
 18 28  1  0
 19 20  1  0
 21 31  1  0
 21 35  1  0
 22 31  1  0
 23 32  1  0
 24 25  1  0
 24 32  1  0
 25 26  1  0
 26 27  1  0
M  END
$$$$
