9glv_B_A24_401
     RDKit          3D

 40 43  0  0  0  0  0  0  0  0999 V2000
  -19.5890   -8.4360   48.2460 C   0  0  0  0  0  2  0  0  0  0  0  0
  -21.0510   -8.1060   47.9940 C   0  0  0  0  0  3  0  0  0  0  0  0
  -21.4520   -6.8280   48.7560 C   0  0  0  0  0  2  0  0  0  0  0  0
  -22.2820   -6.4020   47.5440 C   0  0  0  0  0  2  0  0  0  0  0  0
  -21.3750   -7.3320   46.7020 C   0  0  0  0  0  2  0  0  0  0  0  0
  -17.7060  -10.0280   47.9980 C   0  0  0  0  0  3  0  0  0  0  0  0
  -16.0660  -11.0370   49.5360 C   0  0  0  0  0  3  0  0  0  0  0  0
  -20.0000   -9.7230   43.8040 C   0  0  0  0  0  0  0  0  0  0  0  0
  -16.1080  -11.6900   50.9330 C   0  0  0  0  0  3  0  0  0  0  0  0
  -16.8230  -13.0440   50.8380 C   0  0  0  0  0  2  0  0  0  0  0  0
  -18.1940  -12.8190   50.1760 C   0  0  0  0  0  2  0  0  0  0  0  0
  -18.4700  -11.2960   50.0740 C   0  0  0  0  0  3  0  0  0  0  0  0
  -18.3150  -10.5580   51.4040 C   0  0  0  0  0  2  0  0  0  0  0  0
  -16.8720  -10.7400   51.8740 C   0  0  0  0  0  0  0  0  0  0  0  0
  -15.3570  -11.7880   48.4260 C   0  0  0  0  0  3  0  0  0  0  0  0
  -13.3080  -12.1360   47.1430 C   0  0  0  0  0  3  0  0  0  0  0  0
  -11.9100  -12.4060   47.5740 C   0  0  0  0  0  2  0  0  0  0  0  0
  -13.4090  -11.0770   46.0380 C   0  0  0  0  0  2  0  0  0  0  0  0
  -12.8900  -11.5170   44.6670 C   0  0  0  0  0  3  0  0  0  0  0  0
  -13.7520  -12.6290   43.9970 C   0  0  0  0  0  2  0  0  0  0  0  0
  -14.5240  -11.8840   42.8650 C   0  0  0  0  0  0  0  0  0  0  0  0
  -14.3740  -12.6030   41.5080 C   0  0  0  0  0  1  0  0  0  0  0  0
  -16.0130  -11.6870   43.2280 C   0  0  0  0  0  1  0  0  0  0  0  0
  -12.9850  -10.3180   43.7390 C   0  0  0  0  0  3  0  0  0  0  0  0
  -20.0170  -10.0940   45.2650 C   0  0  0  0  0  3  0  0  0  0  0  0
  -19.1280   -9.7130   47.5430 C   0  0  0  0  0  3  0  0  0  0  0  0
  -20.3820  -10.8050   43.0250 F   0  0  0  0  0  0  0  0  0  0  0  0
  -16.3390   -9.4620   51.8600 F   0  0  0  0  0  0  0  0  0  0  0  0
  -16.8120  -11.2500   53.1500 F   0  0  0  0  0  0  0  0  0  0  0  0
  -20.8650   -8.6640   43.5890 F   0  0  0  0  0  0  0  0  0  0  0  0
  -18.7590   -9.2500   43.4300 F   0  0  0  0  0  0  0  0  0  0  0  0
  -17.4540  -10.7400   49.1270 N   0  0  0  0  0  0  0  0  0  0  0  0
  -14.0490  -11.5440   48.2550 N   0  0  0  0  0  2  0  0  0  0  0  0
  -11.4740  -13.5260   47.1480 N   0  0  0  0  0  1  0  0  0  0  0  0
  -13.8860  -10.5460   42.7770 N   0  0  0  0  0  2  0  0  0  0  0  0
  -19.1760   -9.4640   46.1150 N   0  0  0  0  0  2  0  0  0  0  0  0
  -16.7390   -9.6590   47.3300 O   0  0  0  0  0  1  0  0  0  0  0  0
  -15.9670  -12.5110   47.6650 O   0  0  0  0  0  1  0  0  0  0  0  0
  -12.3880   -9.2610   43.8780 O   0  0  0  0  0  1  0  0  0  0  0  0
  -20.8000  -10.9330   45.6460 O   0  0  0  0  0  1  0  0  0  0  0  0
  1  2  1  0
  1 26  1  0
  2  3  1  0
  2  5  1  0
  3  4  1  0
  4  5  1  0
  6 26  1  0
  6 32  1  0
  6 37  1  0
  7  9  1  0
  7 15  1  0
  7 32  1  0
  8 25  1  0
  8 27  1  0
  8 30  1  0
  8 31  1  0
  9 10  1  0
  9 14  1  0
 10 11  1  0
 11 12  1  0
 12 13  1  0
 12 32  1  0
 13 14  1  0
 14 28  1  0
 14 29  1  0
 15 33  1  0
 15 38  1  0
 16 17  1  0
 16 18  1  0
 16 33  1  0
 17 34  1  0
 18 19  1  0
 19 20  1  0
 19 24  1  0
 20 21  1  0
 21 22  1  0
 21 23  1  0
 21 35  1  0
 24 35  1  0
 24 39  1  0
 25 36  1  0
 25 40  1  0
 26 36  1  0
M  END
$$$$
