9glv_A_A24_401
     RDKit          3D

 40 43  0  0  0  0  0  0  0  0999 V2000
   20.2600    5.9680   18.1480 C   0  0  0  0  0  2  0  0  0  0  0  0
   20.2390    6.9870   16.9900 C   0  0  0  0  0  3  0  0  0  0  0  0
   20.0820    6.3200   15.6060 C   0  0  0  0  0  2  0  0  0  0  0  0
   18.8770    7.1830   15.2910 C   0  0  0  0  0  2  0  0  0  0  0  0
   18.9210    7.7380   16.7320 C   0  0  0  0  0  2  0  0  0  0  0  0
   20.7240    5.5520   20.5420 C   0  0  0  0  0  3  0  0  0  0  0  0
   22.0470    3.8480   21.7460 C   0  0  0  0  0  3  0  0  0  0  0  0
   18.1010    9.4390   20.2320 C   0  0  0  0  0  0  0  0  0  0  0  0
   23.4370    3.2240   21.5630 C   0  0  0  0  0  3  0  0  0  0  0  0
   24.5110    4.2940   21.8030 C   0  0  0  0  0  2  0  0  0  0  0  0
   24.1960    5.5510   20.9580 C   0  0  0  0  0  2  0  0  0  0  0  0
   23.1360    5.1630   19.9230 C   0  0  0  0  0  3  0  0  0  0  0  0
   23.4970    3.8700   19.1540 C   0  0  0  0  0  2  0  0  0  0  0  0
   23.5340    2.6930   20.1320 C   0  0  0  0  0  0  0  0  0  0  0  0
   21.7100    4.3800   23.1220 C   0  0  0  0  0  3  0  0  0  0  0  0
   20.6210    4.0290   25.2690 C   0  0  0  0  0  3  0  0  0  0  0  0
   20.7820    2.9430   26.2830 C   0  0  0  0  0  2  0  0  0  0  0  0
   19.1680    4.3930   24.9510 C   0  0  0  0  0  2  0  0  0  0  0  0
   18.3820    5.0570   26.0910 C   0  0  0  0  0  3  0  0  0  0  0  0
   18.8640    6.4770   26.4320 C   0  0  0  0  0  2  0  0  0  0  0  0
   17.8320    7.4190   25.7710 C   0  0  0  0  0  0  0  0  0  0  0  0
   17.4560    8.6240   26.6430 C   0  0  0  0  0  1  0  0  0  0  0  0
   18.4190    7.9020   24.4240 C   0  0  0  0  0  1  0  0  0  0  0  0
   16.9380    5.2410   25.7010 C   0  0  0  0  0  3  0  0  0  0  0  0
   19.3980    8.7480   19.9140 C   0  0  0  0  0  3  0  0  0  0  0  0
   20.5460    6.6290   19.4990 C   0  0  0  0  0  3  0  0  0  0  0  0
   18.3620   10.7390   20.6300 F   0  0  0  0  0  0  0  0  0  0  0  0
   22.4700    1.8410   19.8670 F   0  0  0  0  0  0  0  0  0  0  0  0
   24.6810    1.9180   19.9800 F   0  0  0  0  0  0  0  0  0  0  0  0
   17.2780    9.4330   19.1110 F   0  0  0  0  0  0  0  0  0  0  0  0
   17.3740    8.7880   21.1940 F   0  0  0  0  0  0  0  0  0  0  0  0
   21.9000    4.9210   20.7230 N   0  0  0  0  0  0  0  0  0  0  0  0
   21.1080    3.5620   23.9800 N   0  0  0  0  0  2  0  0  0  0  0  0
   21.2460    3.3860   27.3800 N   0  0  0  0  0  1  0  0  0  0  0  0
   16.6430    6.5510   25.5550 N   0  0  0  0  0  2  0  0  0  0  0  0
   19.3790    7.4180   19.8470 N   0  0  0  0  0  2  0  0  0  0  0  0
   19.7750    5.2420   21.2360 O   0  0  0  0  0  1  0  0  0  0  0  0
   21.8670    5.5430   23.3910 O   0  0  0  0  0  1  0  0  0  0  0  0
   16.1700    4.3110   25.5200 O   0  0  0  0  0  1  0  0  0  0  0  0
   20.4050    9.3870   19.6920 O   0  0  0  0  0  1  0  0  0  0  0  0
  1  2  1  0
  1 26  1  0
  2  3  1  0
  2  5  1  0
  3  4  1  0
  4  5  1  0
  6 26  1  0
  6 32  1  0
  6 37  1  0
  7  9  1  0
  7 15  1  0
  7 32  1  0
  8 25  1  0
  8 27  1  0
  8 30  1  0
  8 31  1  0
  9 10  1  0
  9 14  1  0
 10 11  1  0
 11 12  1  0
 12 13  1  0
 12 32  1  0
 13 14  1  0
 14 28  1  0
 14 29  1  0
 15 33  1  0
 15 38  1  0
 16 17  1  0
 16 18  1  0
 16 33  1  0
 17 34  1  0
 18 19  1  0
 19 20  1  0
 19 24  1  0
 20 21  1  0
 21 22  1  0
 21 23  1  0
 21 35  1  0
 24 35  1  0
 24 39  1  0
 25 36  1  0
 25 40  1  0
 26 36  1  0
M  END
$$$$
