9gmq_B_MXU_401
     RDKit          3D

 36 38  0  0  0  0  0  0  0  0999 V2000
   32.7740  -29.7680   27.5140 C   0  0  0  0  0  2  0  0  0  0  0  0
   31.8650  -28.8090   20.5770 C   0  0  0  0  0  1  0  0  0  0  0  0
   32.4220  -26.5370   21.4620 C   0  0  0  0  0  1  0  0  0  0  0  0
   29.9170  -27.0360   29.6430 C   0  0  0  0  0  3  0  0  0  0  0  0
   30.1440  -29.3170   30.7020 C   0  0  0  0  0  2  0  0  0  0  0  0
   29.1590  -30.4190   30.9670 C   0  0  0  0  0  3  0  0  0  0  0  0
   29.5290  -31.6000   31.8110 C   0  0  0  0  0  2  0  0  0  0  0  0
   29.3480  -31.7520   30.3370 C   0  0  0  0  0  2  0  0  0  0  0  0
   28.8300  -25.0090   30.4440 C   0  0  0  0  0  3  0  0  0  0  0  0
   28.5150  -25.0000   31.9330 C   0  0  0  0  0  3  0  0  0  0  0  0
   27.8910  -24.2060   29.5420 C   0  0  0  0  0  2  0  0  0  0  0  0
   32.4040  -29.5070   26.2060 C   0  0  0  0  0  2  0  0  0  0  0  0
   28.2990  -24.1670   28.0720 C   0  0  0  0  0  3  0  0  0  0  0  0
   29.5680  -23.3600   27.7590 C   0  0  0  0  0  2  0  0  0  0  0  0
   29.1990  -22.4130   26.6250 C   0  0  0  0  0  2  0  0  0  0  0  0
   27.2220  -23.5500   27.1950 C   0  0  0  0  0  3  0  0  0  0  0  0
   28.8360  -23.6480   32.5200 C   0  0  0  0  0  3  0  0  0  0  0  0
   31.1560  -28.9290   25.9570 C   0  0  0  0  0  3  0  0  0  0  0  0
   30.2830  -28.5730   26.9990 C   0  0  0  0  0  3  0  0  0  0  0  0
   31.9290  -29.4610   28.5110 C   0  0  0  0  0  2  0  0  0  0  0  0
   29.8300  -28.5390   29.4150 C   0  0  0  0  0  3  0  0  0  0  0  0
   31.5660  -28.2740   23.6190 C   0  0  0  0  0  3  0  0  0  0  0  0
   31.3280  -27.5650   21.2570 C   0  0  0  0  0  0  0  0  0  0  0  0
   30.1530  -26.9750   20.4990 C   0  0  0  0  0  1  0  0  0  0  0  0
   30.7020  -28.9030   28.2800 N   0  0  0  0  0  0  0  0  0  0  0  0
   30.7620  -28.6440   24.6390 N   0  0  0  0  0  2  0  0  0  0  0  0
   28.8250  -26.4060   30.0610 N   0  0  0  0  0  2  0  0  0  0  0  0
   27.7600  -22.5760   26.4540 N   0  0  0  0  0  2  0  0  0  0  0  0
   29.9550  -23.6360   33.4270 N   0  0  0  0  0  1  0  0  0  0  0  0
   30.7870  -28.0230   22.5560 O   0  0  0  0  0  0  0  0  0  0  0  0
   29.2900  -25.9910   32.6080 O   0  0  0  0  0  1  0  0  0  0  0  0
   28.1680  -22.6790   32.2860 O   0  0  0  0  0  1  0  0  0  0  0  0
   26.0260  -23.9130   27.1600 O   0  0  0  0  0  1  0  0  0  0  0  0
   29.1830  -28.0570   26.8770 O   0  0  0  0  0  1  0  0  0  0  0  0
   30.9610  -26.4350   29.4370 O   0  0  0  0  0  1  0  0  0  0  0  0
   32.7660  -28.1410   23.6860 O   0  0  0  0  0  1  0  0  0  0  0  0
  1 12  1  0
  1 20  1  0
  2 23  1  0
  3 23  1  0
  4 21  1  0
  4 27  1  0
  4 35  1  0
  5  6  1  0
  5 21  1  0
  6  7  1  0
  6  8  1  0
  7  8  1  0
  9 10  1  0
  9 11  1  0
  9 27  1  0
 10 17  1  0
 10 31  1  0
 11 13  1  0
 12 18  1  0
 13 14  1  0
 13 16  1  0
 14 15  1  0
 15 28  1  0
 16 28  1  0
 16 33  1  0
 17 29  1  0
 17 32  1  0
 18 19  1  0
 18 26  1  0
 19 25  1  0
 19 34  1  0
 20 25  1  0
 21 25  1  0
 22 26  1  0
 22 30  1  0
 22 36  1  0
 23 24  1  0
 23 30  1  0
M  END
$$$$
