9gmq_A_MXU_401
     RDKit          3D

 36 38  0  0  0  0  0  0  0  0999 V2000
  -10.7160    2.6250   20.5640 C   0  0  0  0  0  2  0  0  0  0  0  0
   -9.2850   -0.8810   14.6920 C   0  0  0  0  0  1  0  0  0  0  0  0
   -6.8160   -0.6490   14.4230 C   0  0  0  0  0  1  0  0  0  0  0  0
   -7.9120    1.1650   23.5870 C   0  0  0  0  0  3  0  0  0  0  0  0
   -8.2510    3.6930   23.7830 C   0  0  0  0  0  2  0  0  0  0  0  0
   -7.3820    4.8960   23.5390 C   0  0  0  0  0  3  0  0  0  0  0  0
   -7.6380    6.1900   24.2420 C   0  0  0  0  0  2  0  0  0  0  0  0
   -7.9200    6.0610   22.7880 C   0  0  0  0  0  2  0  0  0  0  0  0
   -6.8370   -0.4350   25.0650 C   0  0  0  0  0  3  0  0  0  0  0  0
   -6.6380    0.0200   26.5010 C   0  0  0  0  0  3  0  0  0  0  0  0
   -5.8410   -1.4520   24.5140 C   0  0  0  0  0  2  0  0  0  0  0  0
  -10.1560    2.0830   19.4120 C   0  0  0  0  0  2  0  0  0  0  0  0
   -6.1820   -1.8310   23.0760 C   0  0  0  0  0  3  0  0  0  0  0  0
   -7.4280   -2.6790   22.8890 C   0  0  0  0  0  2  0  0  0  0  0  0
   -7.1090   -3.5830   21.6980 C   0  0  0  0  0  2  0  0  0  0  0  0
   -5.0960   -2.6240   22.3760 C   0  0  0  0  0  3  0  0  0  0  0  0
   -6.9910   -1.1300   27.4140 C   0  0  0  0  0  3  0  0  0  0  0  0
   -8.8110    1.7020   19.4100 C   0  0  0  0  0  3  0  0  0  0  0  0
   -8.0090    1.8560   20.5370 C   0  0  0  0  0  3  0  0  0  0  0  0
   -9.9480    2.7740   21.6540 C   0  0  0  0  0  2  0  0  0  0  0  0
   -7.8390    2.5210   22.8880 C   0  0  0  0  0  3  0  0  0  0  0  0
   -8.7730    0.6900   17.1560 C   0  0  0  0  0  3  0  0  0  0  0  0
   -8.0840    0.0170   14.8970 C   0  0  0  0  0  0  0  0  0  0  0  0
   -8.2650    1.3580   14.2270 C   0  0  0  0  0  1  0  0  0  0  0  0
   -8.6290    2.4160   21.6490 N   0  0  0  0  0  0  0  0  0  0  0  0
   -8.1820    1.1290   18.2930 N   0  0  0  0  0  2  0  0  0  0  0  0
   -6.8430    0.7720   24.2560 N   0  0  0  0  0  2  0  0  0  0  0  0
   -5.6530   -3.5480   21.6160 N   0  0  0  0  0  2  0  0  0  0  0  0
   -8.1220   -1.0060   28.3120 N   0  0  0  0  0  1  0  0  0  0  0  0
   -7.8280    0.2230   16.3370 O   0  0  0  0  0  0  0  0  0  0  0  0
   -7.4810    1.1460   26.7850 O   0  0  0  0  0  1  0  0  0  0  0  0
   -6.3400   -2.1090   27.4050 O   0  0  0  0  0  1  0  0  0  0  0  0
   -3.9020   -2.4160   22.4770 O   0  0  0  0  0  1  0  0  0  0  0  0
   -6.8210    1.5600   20.6200 O   0  0  0  0  0  1  0  0  0  0  0  0
   -8.8890    0.4290   23.4730 O   0  0  0  0  0  1  0  0  0  0  0  0
   -9.9450    0.7330   16.9070 O   0  0  0  0  0  1  0  0  0  0  0  0
  1 12  1  0
  1 20  1  0
  2 23  1  0
  3 23  1  0
  4 21  1  0
  4 27  1  0
  4 35  1  0
  5  6  1  0
  5 21  1  0
  6  7  1  0
  6  8  1  0
  7  8  1  0
  9 10  1  0
  9 11  1  0
  9 27  1  0
 10 17  1  0
 10 31  1  0
 11 13  1  0
 12 18  1  0
 13 14  1  0
 13 16  1  0
 14 15  1  0
 15 28  1  0
 16 28  1  0
 16 33  1  0
 17 29  1  0
 17 32  1  0
 18 19  1  0
 18 26  1  0
 19 25  1  0
 19 34  1  0
 20 25  1  0
 21 25  1  0
 22 26  1  0
 22 30  1  0
 22 36  1  0
 23 24  1  0
 23 30  1  0
M  END
$$$$
