9h0f_B_A25_402
     RDKit          3D

 32 33  0  0  0  0  0  0  0  0999 V2000
  -20.0590   -6.8230  -33.4660 C   0  0  0  0  0  3  0  0  0  0  0  0
  -20.6540   -7.7500  -31.1760 C   0  0  0  0  0  3  0  0  0  0  0  0
  -20.7410   -6.5220  -30.2290 C   0  0  0  0  0  3  0  0  0  0  0  0
  -22.0660   -4.5620  -29.0520 C   0  0  0  0  0  3  0  0  0  0  0  0
  -21.8450   -4.9080  -27.5000 C   0  0  0  0  0  3  0  0  0  0  0  0
  -20.7490   -4.5900  -25.1780 C   0  0  0  0  0  3  0  0  0  0  0  0
  -21.1740   -3.3710  -24.3410 C   0  0  0  0  0  2  0  0  0  0  0  0
  -19.2640   -5.0000  -24.8990 C   0  0  0  0  0  2  0  0  0  0  0  0
  -18.5960   -5.8780  -25.9810 C   0  0  0  0  0  3  0  0  0  0  0  0
  -19.0320   -7.3540  -25.9900 C   0  0  0  0  0  2  0  0  0  0  0  0
  -17.7980   -8.1630  -25.5030 C   0  0  0  0  0  2  0  0  0  0  0  0
  -17.0950   -5.9000  -25.8630 C   0  0  0  0  0  3  0  0  0  0  0  0
  -23.4450   -3.8600  -29.1540 C   0  0  0  0  0  2  0  0  0  0  0  0
  -24.2830   -3.6020  -32.0570 C   0  0  0  0  0  1  0  0  0  0  0  0
  -26.0860   -5.1390  -29.9490 C   0  0  0  0  0  1  0  0  0  0  0  0
  -23.1840   -6.1250  -30.6250 C   0  0  0  0  0  2  0  0  0  0  0  0
  -20.3590   -9.1410  -30.4370 C   0  0  0  0  0  0  0  0  0  0  0  0
  -18.8690   -9.2520  -30.0120 C   0  0  0  0  0  1  0  0  0  0  0  0
  -21.2180   -9.2460  -29.1580 C   0  0  0  0  0  1  0  0  0  0  0  0
  -20.7020  -10.3260  -31.3540 C   0  0  0  0  0  1  0  0  0  0  0  0
  -19.6290   -5.9860  -35.6660 C   0  0  0  0  0  1  0  0  0  0  0  0
  -19.7020   -7.4850  -32.2420 N   0  0  0  0  0  2  0  0  0  0  0  0
  -21.9350   -5.7150  -29.9460 N   0  0  0  0  0  0  0  0  0  0  0  0
  -20.9120   -4.2650  -26.5930 N   0  0  0  0  0  2  0  0  0  0  0  0
  -21.7360   -3.5020  -23.2140 N   0  0  0  0  0  1  0  0  0  0  0  0
  -16.6620   -7.2900  -25.5770 N   0  0  0  0  0  2  0  0  0  0  0  0
  -21.2430   -6.6960  -33.8030 O   0  0  0  0  0  1  0  0  0  0  0  0
  -16.2860   -5.0000  -25.9670 O   0  0  0  0  0  1  0  0  0  0  0  0
  -22.5200   -5.8300  -27.0480 O   0  0  0  0  0  1  0  0  0  0  0  0
  -19.7080   -6.1800  -29.6510 O   0  0  0  0  0  1  0  0  0  0  0  0
  -19.0840   -6.2890  -34.3540 O   0  0  0  0  0  0  0  0  0  0  0  0
  -24.3620   -4.6600  -30.5170 Si  0  0  0  0  0  4  0  0  0  0  0  0
  1 22  1  0
  1 27  1  0
  1 31  1  0
  2  3  1  0
  2 17  1  0
  2 22  1  0
  3 23  1  0
  3 30  1  0
  4  5  1  0
  4 13  1  0
  4 23  1  0
  5 24  1  0
  5 29  1  0
  6  7  1  0
  6  8  1  0
  6 24  1  0
  7 25  1  0
  8  9  1  0
  9 10  1  0
  9 12  1  0
 10 11  1  0
 11 26  1  0
 12 26  1  0
 12 28  1  0
 13 32  1  0
 14 32  1  0
 15 32  1  0
 16 23  1  0
 16 32  1  0
 17 18  1  0
 17 19  1  0
 17 20  1  0
 21 31  1  0
M  END
$$$$
