9h0f_A_A25_402
     RDKit          3D

 32 33  0  0  0  0  0  0  0  0999 V2000
   19.9380    8.4860   -3.8440 C   0  0  0  0  0  3  0  0  0  0  0  0
   18.8790   10.6960   -4.5550 C   0  0  0  0  0  3  0  0  0  0  0  0
   17.4470   10.8330   -4.0150 C   0  0  0  0  0  3  0  0  0  0  0  0
   15.7010   11.7320   -2.2400 C   0  0  0  0  0  3  0  0  0  0  0  0
   14.7470   12.6590   -3.1530 C   0  0  0  0  0  3  0  0  0  0  0  0
   12.7320   13.0500   -4.7390 C   0  0  0  0  0  3  0  0  0  0  0  0
   11.4300   13.2940   -3.9780 C   0  0  0  0  0  2  0  0  0  0  0  0
   12.4390   12.3200   -6.0990 C   0  0  0  0  0  2  0  0  0  0  0  0
   13.6390   11.6510   -6.8140 C   0  0  0  0  0  3  0  0  0  0  0  0
   14.5360   12.6040   -7.6170 C   0  0  0  0  0  2  0  0  0  0  0  0
   14.2350   12.3020   -9.1170 C   0  0  0  0  0  2  0  0  0  0  0  0
   13.1860   10.6040   -7.7990 C   0  0  0  0  0  3  0  0  0  0  0  0
   15.7170   12.3750   -0.8350 C   0  0  0  0  0  2  0  0  0  0  0  0
   17.7310   10.7770    0.7360 C   0  0  0  0  0  1  0  0  0  0  0  0
   17.9030   13.9440    0.5930 C   0  0  0  0  0  1  0  0  0  0  0  0
   18.1260   12.1910   -2.0170 C   0  0  0  0  0  2  0  0  0  0  0  0
   19.1690   11.5590   -5.8830 C   0  0  0  0  0  0  0  0  0  0  0  0
   18.8190   13.0600   -5.6800 C   0  0  0  0  0  1  0  0  0  0  0  0
   20.6600   11.4710   -6.2490 C   0  0  0  0  0  1  0  0  0  0  0  0
   18.3420   11.0210   -7.0650 C   0  0  0  0  0  1  0  0  0  0  0  0
   21.0180    6.4050   -3.3800 C   0  0  0  0  0  1  0  0  0  0  0  0
   19.1980    9.3030   -4.7620 N   0  0  0  0  0  2  0  0  0  0  0  0
   17.0450   11.5450   -2.7960 N   0  0  0  0  0  0  0  0  0  0  0  0
   13.6020   12.2100   -3.9210 N   0  0  0  0  0  2  0  0  0  0  0  0
   10.8000   14.3900   -4.0580 N   0  0  0  0  0  1  0  0  0  0  0  0
   13.5620   11.0400   -9.1670 N   0  0  0  0  0  2  0  0  0  0  0  0
   20.7070    8.9730   -3.0090 O   0  0  0  0  0  1  0  0  0  0  0  0
   12.6040    9.5550   -7.6180 O   0  0  0  0  0  1  0  0  0  0  0  0
   15.0380   13.8540   -3.2170 O   0  0  0  0  0  1  0  0  0  0  0  0
   16.5420   10.2970   -4.6640 O   0  0  0  0  0  1  0  0  0  0  0  0
   19.8250    7.0740   -3.8560 O   0  0  0  0  0  0  0  0  0  0  0  0
   17.4510   12.3310   -0.2610 Si  0  0  0  0  0  4  0  0  0  0  0  0
  1 22  1  0
  1 27  1  0
  1 31  1  0
  2  3  1  0
  2 17  1  0
  2 22  1  0
  3 23  1  0
  3 30  1  0
  4  5  1  0
  4 13  1  0
  4 23  1  0
  5 24  1  0
  5 29  1  0
  6  7  1  0
  6  8  1  0
  6 24  1  0
  7 25  1  0
  8  9  1  0
  9 10  1  0
  9 12  1  0
 10 11  1  0
 11 26  1  0
 12 26  1  0
 12 28  1  0
 13 32  1  0
 14 32  1  0
 15 32  1  0
 16 23  1  0
 16 32  1  0
 17 18  1  0
 17 19  1  0
 17 20  1  0
 21 31  1  0
M  END
$$$$
