9h4b_A_A26_401
     RDKit          3D

 45 47  0  0  0  0  0  0  0  0999 V2000
  -17.4230  -17.5930    0.0310 C   0  0  0  0  0  2  0  0  0  0  0  0
  -15.0690  -24.2690    1.1290 C   0  0  0  0  0  3  0  0  0  0  0  0
  -13.7900  -22.2090    0.3900 C   0  0  0  0  0  3  0  0  0  0  0  0
  -12.6400  -23.1190   -0.0080 C   0  0  0  0  0  1  0  0  0  0  0  0
  -13.8300  -20.9830   -0.5000 C   0  0  0  0  0  1  0  0  0  0  0  0
  -15.3160  -26.6410    1.1330 C   0  0  0  0  0  3  0  0  0  0  0  0
  -13.9140  -27.1850    1.3000 C   0  0  0  0  0  3  0  0  0  0  0  0
  -16.2970  -27.5710    0.4560 C   0  0  0  0  0  2  0  0  0  0  0  0
  -17.6920  -27.1380    0.8990 C   0  0  0  0  0  3  0  0  0  0  0  0
  -12.3300  -28.2730    2.8330 C   0  0  0  0  0  3  0  0  0  0  0  0
  -18.3520  -26.3070   -0.1780 C   0  0  0  0  0  1  0  0  0  0  0  0
  -17.2220  -16.7640   -1.0540 C   0  0  0  0  0  2  0  0  0  0  0  0
  -18.5410  -28.2530    1.3830 C   0  0  0  0  0  1  0  0  0  0  0  0
  -12.3720  -29.7870    3.1430 C   0  0  0  0  0  3  0  0  0  0  0  0
  -11.7540  -27.4370    3.9730 C   0  0  0  0  0  2  0  0  0  0  0  0
  -12.4050  -30.5770    1.8710 C   0  0  0  0  0  3  0  0  0  0  0  0
  -11.5120  -25.9690    3.6400 C   0  0  0  0  0  3  0  0  0  0  0  0
  -10.4210  -25.6700    2.5900 C   0  0  0  0  0  2  0  0  0  0  0  0
   -9.8730  -24.2830    3.0040 C   0  0  0  0  0  2  0  0  0  0  0  0
  -11.1290  -25.0960    4.8350 C   0  0  0  0  0  3  0  0  0  0  0  0
  -13.0560  -31.2420   -0.1830 C   0  0  0  0  0  3  0  0  0  0  0  0
  -12.1360  -32.1750    0.0460 C   0  0  0  0  0  2  0  0  0  0  0  0
  -17.3880  -17.2410   -2.3420 C   0  0  0  0  0  2  0  0  0  0  0  0
  -13.9080  -31.1280   -1.4050 C   0  0  0  0  0  3  0  0  0  0  0  0
  -14.1110  -31.8080   -3.6310 C   0  0  0  0  0  1  0  0  0  0  0  0
  -17.7270  -18.5650   -2.5450 C   0  0  0  0  0  2  0  0  0  0  0  0
  -17.9270  -19.3950   -1.4550 C   0  0  0  0  0  2  0  0  0  0  0  0
  -17.7820  -18.9190   -0.1480 C   0  0  0  0  0  3  0  0  0  0  0  0
  -17.9190  -19.8220    1.0620 C   0  0  0  0  0  2  0  0  0  0  0  0
  -17.3340  -22.0080    0.1660 C   0  0  0  0  0  3  0  0  0  0  0  0
  -15.1300  -22.9610    0.3530 C   0  0  0  0  0  3  0  0  0  0  0  0
  -16.2100  -22.1650    0.9000 N   0  0  0  0  0  2  0  0  0  0  0  0
  -15.3650  -25.3820    0.4450 N   0  0  0  0  0  2  0  0  0  0  0  0
  -13.6560  -27.7790    2.4690 N   0  0  0  0  0  2  0  0  0  0  0  0
  -10.2040  -24.2150    4.4270 N   0  0  0  0  0  2  0  0  0  0  0  0
  -13.2000  -30.3270    0.8470 N   0  0  0  0  0  2  0  0  0  0  0  0
  -18.2720  -21.1860    0.7100 O   0  0  0  0  0  0  0  0  0  0  0  0
  -17.4500  -22.4740   -0.9520 O   0  0  0  0  0  1  0  0  0  0  0  0
  -14.6970  -24.2750    2.3030 O   0  0  0  0  0  1  0  0  0  0  0  0
  -13.1110  -27.0800    0.3960 O   0  0  0  0  0  1  0  0  0  0  0  0
  -11.6550  -25.1410    6.0010 O   0  0  0  0  0  1  0  0  0  0  0  0
  -11.1400  -30.1850    3.7170 O   0  0  0  0  0  1  0  0  0  0  0  0
  -14.7580  -30.2930   -1.5630 O   0  0  0  0  0  1  0  0  0  0  0  0
  -13.5780  -32.0440   -2.3070 O   0  0  0  0  0  0  0  0  0  0  0  0
  -11.3780  -31.9750    1.5840 S   0  0  0  0  0  0  0  0  0  0  0  0
  1 12  1  0
  1 28  1  0
  2 31  1  0
  2 33  1  0
  2 39  1  0
  3  4  1  0
  3  5  1  0
  3 31  1  0
  6  7  1  0
  6  8  1  0
  6 33  1  0
  7 34  1  0
  7 40  1  0
  8  9  1  0
  9 11  1  0
  9 13  1  0
 10 14  1  0
 10 15  1  0
 10 34  1  0
 12 23  1  0
 14 16  1  0
 14 42  1  0
 15 17  1  0
 16 36  1  0
 16 45  1  0
 17 18  1  0
 17 20  1  0
 18 19  1  0
 19 35  1  0
 20 35  1  0
 20 41  1  0
 21 22  1  0
 21 24  1  0
 21 36  1  0
 22 45  1  0
 23 26  1  0
 24 43  1  0
 24 44  1  0
 25 44  1  0
 26 27  1  0
 27 28  1  0
 28 29  1  0
 29 37  1  0
 30 32  1  0
 30 37  1  0
 30 38  1  0
 31 32  1  0
M  END
$$$$
