9haj_A_A27_401
     RDKit          3D

 31 33  0  0  0  0  0  0  0  0999 V2000
  -20.0240   -5.0860  -34.7610 Br  0  0  0  0  0  0  0  0  0  0  0  0
  -22.6430   -0.7990  -31.5470 C   0  0  0  0  0  1  0  0  0  0  0  0
  -22.9090   -4.8140  -25.4490 C   0  0  0  0  0  2  0  0  0  0  0  0
  -23.8760   -5.4880  -26.4060 C   0  0  0  0  0  2  0  0  0  0  0  0
  -20.5970   -4.8220  -24.8640 C   0  0  0  0  0  3  0  0  0  0  0  0
  -19.1420   -5.0690  -25.1000 C   0  0  0  0  0  3  0  0  0  0  0  0
  -18.2510   -4.0050  -25.1770 C   0  0  0  0  0  2  0  0  0  0  0  0
  -16.4650   -5.3910  -25.4840 C   0  0  0  0  0  2  0  0  0  0  0  0
  -17.2630   -6.4940  -25.4120 C   0  0  0  0  0  3  0  0  0  0  0  0
  -18.6230   -6.3530  -25.2170 C   0  0  0  0  0  2  0  0  0  0  0  0
  -23.4530   -1.9240  -32.1170 C   0  0  0  0  0  2  0  0  0  0  0  0
  -24.2780   -4.6790  -27.6280 C   0  0  0  0  0  3  0  0  0  0  0  0
  -25.5560   -5.2880  -28.1870 C   0  0  0  0  0  3  0  0  0  0  0  0
  -28.0160   -5.1360  -28.1560 C   0  0  0  0  0  2  0  0  0  0  0  0
  -28.4810   -5.9010  -26.9560 C   0  0  0  0  0  1  0  0  0  0  0  0
  -22.0310   -5.3250  -31.1530 C   0  0  0  0  0  2  0  0  0  0  0  0
  -21.2190   -5.6090  -32.2370 C   0  0  0  0  0  2  0  0  0  0  0  0
  -21.1440   -4.6990  -33.2680 C   0  0  0  0  0  3  0  0  0  0  0  0
  -22.6810   -3.2210  -32.1410 C   0  0  0  0  0  3  0  0  0  0  0  0
  -21.8600   -3.5120  -33.2360 C   0  0  0  0  0  2  0  0  0  0  0  0
  -22.7670   -4.1400  -31.0850 C   0  0  0  0  0  3  0  0  0  0  0  0
  -23.6300   -3.8890  -29.8760 C   0  0  0  0  0  2  0  0  0  0  0  0
  -21.8680   -4.1780  -28.1380 C   0  0  0  0  0  2  0  0  0  0  0  0
  -21.1590   -5.1790  -27.2520 C   0  0  0  0  0  2  0  0  0  0  0  0
  -16.5890   -8.0860  -25.5670 Cl  0  0  0  0  0  0  0  0  0  0  0  0
  -16.9320   -4.1480  -25.3730 N   0  0  0  0  0  2  0  0  0  0  0  0
  -26.6750   -4.6030  -27.9300 N   0  0  0  0  0  2  0  0  0  0  0  0
  -23.2080   -4.6350  -28.6350 N   0  0  0  0  0  0  0  0  0  0  0  0
  -21.5020   -4.9580  -25.8430 N   0  0  0  0  0  0  0  0  0  0  0  0
  -20.9160   -4.5380  -23.7280 O   0  0  0  0  0  1  0  0  0  0  0  0
  -25.5170   -6.3680  -28.7740 O   0  0  0  0  0  1  0  0  0  0  0  0
  1 18  1  0
  2 11  1  0
  3  4  1  0
  3 29  1  0
  4 12  1  0
  5  6  1  0
  5 29  1  0
  5 30  1  0
  6  7  1  0
  6 10  1  0
  7 26  1  0
  8  9  1  0
  8 26  1  0
  9 10  1  0
  9 25  1  0
 11 19  1  0
 12 13  1  0
 12 28  1  0
 13 27  1  0
 13 31  1  0
 14 15  1  0
 14 27  1  0
 16 17  1  0
 16 21  1  0
 17 18  1  0
 18 20  1  0
 19 20  1  0
 19 21  1  0
 21 22  1  0
 22 28  1  0
 23 24  1  0
 23 28  1  0
 24 29  1  0
M  END
$$$$
