9haj_B_A27_401
     RDKit          3D

 31 33  0  0  0  0  0  0  0  0999 V2000
   20.3050    7.3760   -1.8780 Br  0  0  0  0  0  0  0  0  0  0  0  0
   15.6470    9.0150    1.2460 C   0  0  0  0  0  1  0  0  0  0  0  0
   14.1200   14.7660   -3.4490 C   0  0  0  0  0  2  0  0  0  0  0  0
   15.4220   15.1460   -2.7560 C   0  0  0  0  0  2  0  0  0  0  0  0
   13.1830   13.4840   -5.2050 C   0  0  0  0  0  3  0  0  0  0  0  0
   13.1520   12.4230   -6.2480 C   0  0  0  0  0  3  0  0  0  0  0  0
   12.3110   11.3280   -6.1200 C   0  0  0  0  0  2  0  0  0  0  0  0
   12.9850   10.4360   -8.1240 C   0  0  0  0  0  2  0  0  0  0  0  0
   13.8410   11.4910   -8.3300 C   0  0  0  0  0  3  0  0  0  0  0  0
   13.9350   12.5030   -7.3940 C   0  0  0  0  0  2  0  0  0  0  0  0
   16.8370    9.8960    1.3460 C   0  0  0  0  0  2  0  0  0  0  0  0
   15.8180   14.3320   -1.5340 C   0  0  0  0  0  3  0  0  0  0  0  0
   16.8850   15.1060   -0.7700 C   0  0  0  0  0  3  0  0  0  0  0  0
   17.2920   16.7640    0.9800 C   0  0  0  0  0  2  0  0  0  0  0  0
   17.0660   18.1600    0.4860 C   0  0  0  0  0  1  0  0  0  0  0  0
   18.3390   11.0030   -1.9760 C   0  0  0  0  0  2  0  0  0  0  0  0
   19.1430    9.9280   -2.2910 C   0  0  0  0  0  2  0  0  0  0  0  0
   19.1950    8.8610   -1.4310 C   0  0  0  0  0  3  0  0  0  0  0  0
   17.6360    9.9330    0.0650 C   0  0  0  0  0  3  0  0  0  0  0  0
   18.4550    8.8460   -0.2610 C   0  0  0  0  0  2  0  0  0  0  0  0
   17.5780   11.0290   -0.8080 C   0  0  0  0  0  3  0  0  0  0  0  0
   16.7420   12.2600   -0.5850 C   0  0  0  0  0  2  0  0  0  0  0  0
   15.3180   12.1360   -2.6410 C   0  0  0  0  0  2  0  0  0  0  0  0
   15.2350   12.5780   -4.0920 C   0  0  0  0  0  2  0  0  0  0  0  0
   14.8110   11.5630   -9.7700 Cl  0  0  0  0  0  0  0  0  0  0  0  0
   12.2200   10.3470   -7.0280 N   0  0  0  0  0  2  0  0  0  0  0  0
   16.4450   15.8280    0.2580 N   0  0  0  0  0  2  0  0  0  0  0  0
   16.2470   12.9630   -1.8310 N   0  0  0  0  0  0  0  0  0  0  0  0
   14.1810   13.5750   -4.3060 N   0  0  0  0  0  0  0  0  0  0  0  0
   12.2800   14.2880   -5.2530 O   0  0  0  0  0  1  0  0  0  0  0  0
   18.0550   15.0730   -1.1420 O   0  0  0  0  0  1  0  0  0  0  0  0
  1 18  1  0
  2 11  1  0
  3  4  1  0
  3 29  1  0
  4 12  1  0
  5  6  1  0
  5 29  1  0
  5 30  1  0
  6  7  1  0
  6 10  1  0
  7 26  1  0
  8  9  1  0
  8 26  1  0
  9 10  1  0
  9 25  1  0
 11 19  1  0
 12 13  1  0
 12 28  1  0
 13 27  1  0
 13 31  1  0
 14 15  1  0
 14 27  1  0
 16 17  1  0
 16 21  1  0
 17 18  1  0
 18 20  1  0
 19 20  1  0
 19 21  1  0
 21 22  1  0
 22 28  1  0
 23 24  1  0
 23 28  1  0
 24 29  1  0
M  END
$$$$
