9hak_B_A28_401
     RDKit          3D

 33 36  0  0  0  0  0  0  0  0999 V2000
   20.3330    7.2210   -1.8640 Br  0  0  0  0  0  0  0  0  0  0  0  0
   15.6650    8.9470    1.2980 C   0  0  0  0  0  1  0  0  0  0  0  0
   14.2250   14.6970   -3.4140 C   0  0  0  0  0  2  0  0  0  0  0  0
   15.5550   15.0350   -2.7540 C   0  0  0  0  0  2  0  0  0  0  0  0
   13.2490   13.4160   -5.1410 C   0  0  0  0  0  3  0  0  0  0  0  0
   13.2250   12.3620   -6.2080 C   0  0  0  0  0  3  0  0  0  0  0  0
   14.0320   12.4150   -7.3570 C   0  0  0  0  0  3  0  0  0  0  0  0
   15.0120   13.3640   -7.8000 C   0  0  0  0  0  2  0  0  0  0  0  0
   15.5600   13.0190   -8.9850 C   0  0  0  0  0  2  0  0  0  0  0  0
   13.8840   11.3570   -8.2700 C   0  0  0  0  0  3  0  0  0  0  0  0
   12.9800   10.3270   -8.0300 C   0  0  0  0  0  2  0  0  0  0  0  0
   16.9470    9.7530    1.3690 C   0  0  0  0  0  2  0  0  0  0  0  0
   12.3470   11.2890   -6.0570 C   0  0  0  0  0  2  0  0  0  0  0  0
   15.9210   14.2210   -1.5190 C   0  0  0  0  0  3  0  0  0  0  0  0
   16.9670   14.9820   -0.7170 C   0  0  0  0  0  3  0  0  0  0  0  0
   17.3450   16.5890    1.1050 C   0  0  0  0  0  2  0  0  0  0  0  0
   17.1630   18.0050    0.6730 C   0  0  0  0  0  1  0  0  0  0  0  0
   18.3750   10.8430   -2.0180 C   0  0  0  0  0  2  0  0  0  0  0  0
   17.7120    9.8020    0.0610 C   0  0  0  0  0  3  0  0  0  0  0  0
   19.1760    9.7620   -2.3280 C   0  0  0  0  0  2  0  0  0  0  0  0
   19.2400    8.7140   -1.4440 C   0  0  0  0  0  3  0  0  0  0  0  0
   18.5250    8.7180   -0.2630 C   0  0  0  0  0  2  0  0  0  0  0  0
   17.6340   10.8830   -0.8330 C   0  0  0  0  0  3  0  0  0  0  0  0
   16.7860   12.0970   -0.5690 C   0  0  0  0  0  2  0  0  0  0  0  0
   15.4260   12.0530   -2.6640 C   0  0  0  0  0  2  0  0  0  0  0  0
   15.3480   12.5320   -4.0970 C   0  0  0  0  0  2  0  0  0  0  0  0
   12.2180   10.2900   -6.9340 N   0  0  0  0  0  2  0  0  0  0  0  0
   16.5030   15.6970    0.3120 N   0  0  0  0  0  2  0  0  0  0  0  0
   16.3380   12.8450   -1.8060 N   0  0  0  0  0  0  0  0  0  0  0  0
   14.2710   13.5090   -4.2760 N   0  0  0  0  0  0  0  0  0  0  0  0
   12.3080   14.1990   -5.1370 O   0  0  0  0  0  1  0  0  0  0  0  0
   18.1410   14.9640   -1.0680 O   0  0  0  0  0  1  0  0  0  0  0  0
   14.9330   11.5500   -9.6330 S   0  0  0  0  0  0  0  0  0  0  0  0
  1 21  1  0
  2 12  1  0
  3  4  1  0
  3 30  1  0
  4 14  1  0
  5  6  1  0
  5 30  1  0
  5 31  1  0
  6  7  1  0
  6 13  1  0
  7  8  1  0
  7 10  1  0
  8  9  1  0
  9 33  1  0
 10 11  1  0
 10 33  1  0
 11 27  1  0
 12 19  1  0
 13 27  1  0
 14 15  1  0
 14 29  1  0
 15 28  1  0
 15 32  1  0
 16 17  1  0
 16 28  1  0
 18 20  1  0
 18 23  1  0
 19 22  1  0
 19 23  1  0
 20 21  1  0
 21 22  1  0
 23 24  1  0
 24 29  1  0
 25 26  1  0
 25 29  1  0
 26 30  1  0
M  END
$$$$
