9hak_A_A28_401
     RDKit          3D

 33 36  0  0  0  0  0  0  0  0999 V2000
  -19.9230   -4.8810  -34.8430 Br  0  0  0  0  0  0  0  0  0  0  0  0
  -22.4790   -0.6100  -31.6540 C   0  0  0  0  0  1  0  0  0  0  0  0
  -22.7920   -4.7730  -25.4910 C   0  0  0  0  0  2  0  0  0  0  0  0
  -23.7840   -5.3940  -26.4650 C   0  0  0  0  0  2  0  0  0  0  0  0
  -20.4850   -4.7220  -24.9290 C   0  0  0  0  0  3  0  0  0  0  0  0
  -19.0240   -4.9640  -25.1550 C   0  0  0  0  0  3  0  0  0  0  0  0
  -18.4790   -6.2490  -25.3220 C   0  0  0  0  0  3  0  0  0  0  0  0
  -19.0770   -7.5580  -25.3460 C   0  0  0  0  0  2  0  0  0  0  0  0
  -18.1600   -8.5330  -25.5410 C   0  0  0  0  0  2  0  0  0  0  0  0
  -17.0830   -6.3090  -25.5080 C   0  0  0  0  0  3  0  0  0  0  0  0
  -16.3090   -5.1530  -25.5200 C   0  0  0  0  0  2  0  0  0  0  0  0
  -23.3080   -1.7520  -32.1650 C   0  0  0  0  0  2  0  0  0  0  0  0
  -18.1660   -3.8660  -25.1770 C   0  0  0  0  0  2  0  0  0  0  0  0
  -24.1510   -4.5680  -27.6890 C   0  0  0  0  0  3  0  0  0  0  0  0
  -25.4350   -5.1410  -28.2720 C   0  0  0  0  0  3  0  0  0  0  0  0
  -27.8830   -4.9920  -28.2510 C   0  0  0  0  0  2  0  0  0  0  0  0
  -28.3920   -5.7640  -27.0770 C   0  0  0  0  0  1  0  0  0  0  0  0
  -21.9080   -5.1800  -31.2380 C   0  0  0  0  0  2  0  0  0  0  0  0
  -22.5500   -3.0580  -32.1920 C   0  0  0  0  0  3  0  0  0  0  0  0
  -21.1030   -5.4490  -32.3270 C   0  0  0  0  0  2  0  0  0  0  0  0
  -21.0280   -4.5220  -33.3410 C   0  0  0  0  0  3  0  0  0  0  0  0
  -21.7360   -3.3360  -33.2890 C   0  0  0  0  0  2  0  0  0  0  0  0
  -22.6350   -3.9930  -31.1510 C   0  0  0  0  0  3  0  0  0  0  0  0
  -23.4960   -3.7490  -29.9410 C   0  0  0  0  0  2  0  0  0  0  0  0
  -21.7340   -4.1000  -28.2240 C   0  0  0  0  0  2  0  0  0  0  0  0
  -21.0680   -5.1160  -27.3240 C   0  0  0  0  0  2  0  0  0  0  0  0
  -16.8410   -3.9390  -25.3550 N   0  0  0  0  0  2  0  0  0  0  0  0
  -26.5470   -4.4720  -27.9730 N   0  0  0  0  0  2  0  0  0  0  0  0
  -23.0730   -4.4940  -28.7010 N   0  0  0  0  0  0  0  0  0  0  0  0
  -21.3850   -4.8920  -25.9120 N   0  0  0  0  0  0  0  0  0  0  0  0
  -20.8030   -4.4410  -23.7870 O   0  0  0  0  0  1  0  0  0  0  0  0
  -25.4020   -6.1790  -28.9250 O   0  0  0  0  0  1  0  0  0  0  0  0
  -16.5420   -7.9440  -25.7040 S   0  0  0  0  0  0  0  0  0  0  0  0
  1 21  1  0
  2 12  1  0
  3  4  1  0
  3 30  1  0
  4 14  1  0
  5  6  1  0
  5 30  1  0
  5 31  1  0
  6  7  1  0
  6 13  1  0
  7  8  1  0
  7 10  1  0
  8  9  1  0
  9 33  1  0
 10 11  1  0
 10 33  1  0
 11 27  1  0
 12 19  1  0
 13 27  1  0
 14 15  1  0
 14 29  1  0
 15 28  1  0
 15 32  1  0
 16 17  1  0
 16 28  1  0
 18 20  1  0
 18 23  1  0
 19 22  1  0
 19 23  1  0
 20 21  1  0
 21 22  1  0
 23 24  1  0
 24 29  1  0
 25 26  1  0
 25 29  1  0
 26 30  1  0
M  END
$$$$
