9hfx_A_A29_401
     RDKit          3D

 33 36  0  0  0  0  0  0  0  0999 V2000
  -14.3020   -1.1230    0.1990 C   0  0  0  0  0  3  0  0  0  0  0  0
  -16.2850    0.4630   -2.0300 C   0  0  0  0  0  2  0  0  0  0  0  0
  -16.8880   -0.9330   -2.1390 C   0  0  0  0  0  3  0  0  0  0  0  0
  -16.5750   -1.6660   -0.8060 C   0  0  0  0  0  3  0  0  0  0  0  0
  -17.9990   -2.0570   -0.2900 C   0  0  0  0  0  3  0  0  0  0  0  0
  -18.6630   -2.4120   -1.6310 C   0  0  0  0  0  2  0  0  0  0  0  0
  -18.4430   -1.0110   -2.2270 C   0  0  0  0  0  3  0  0  0  0  0  0
  -19.0070   -0.1660   -1.1080 C   0  0  0  0  0  2  0  0  0  0  0  0
  -18.7540   -0.7900    0.0330 C   0  0  0  0  0  2  0  0  0  0  0  0
  -15.4590    1.7250    0.0040 C   0  0  0  0  0  3  0  0  0  0  0  0
  -15.4570    3.0340   -0.7880 C   0  0  0  0  0  3  0  0  0  0  0  0
  -12.6640   -2.1280    1.7830 C   0  0  0  0  0  3  0  0  0  0  0  0
  -17.4990    4.3730   -0.5860 C   0  0  0  0  0  2  0  0  0  0  0  0
  -14.0480    3.5810   -1.0930 C   0  0  0  0  0  0  0  0  0  0  0  0
  -13.3010    3.9930    0.1860 C   0  0  0  0  0  1  0  0  0  0  0  0
  -13.2210    2.5050   -1.8150 C   0  0  0  0  0  1  0  0  0  0  0  0
  -14.1810    4.7970   -2.0230 C   0  0  0  0  0  1  0  0  0  0  0  0
  -12.6230   -3.6240    2.1540 C   0  0  0  0  0  2  0  0  0  0  0  0
  -12.2450   -1.2600    2.9760 C   0  0  0  0  0  2  0  0  0  0  0  0
  -11.9410    0.2100    2.6560 C   0  0  0  0  0  3  0  0  0  0  0  0
  -10.8610    0.4790    1.6170 C   0  0  0  0  0  2  0  0  0  0  0  0
  -10.1040    1.7010    2.1180 C   0  0  0  0  0  2  0  0  0  0  0  0
  -11.4630    0.9700    3.8780 C   0  0  0  0  0  3  0  0  0  0  0  0
  -15.7560   -0.6880    0.0510 C   0  0  0  0  0  3  0  0  0  0  0  0
  -14.0020   -1.7390    1.3520 N   0  0  0  0  0  2  0  0  0  0  0  0
  -11.6010   -4.3140    1.9090 N   0  0  0  0  0  1  0  0  0  0  0  0
  -10.4760    1.7870    3.5250 N   0  0  0  0  0  2  0  0  0  0  0  0
  -15.8260    0.5980   -0.6410 N   0  0  0  0  0  0  0  0  0  0  0  0
  -16.3160    3.9860   -0.0990 N   0  0  0  0  0  2  0  0  0  0  0  0
  -13.4850   -0.8950   -0.6920 O   0  0  0  0  0  1  0  0  0  0  0  0
  -11.9170    0.8360    5.0290 O   0  0  0  0  0  1  0  0  0  0  0  0
  -15.1270    1.7080    1.1940 O   0  0  0  0  0  1  0  0  0  0  0  0
  -17.9380    3.9990   -1.6720 O   0  0  0  0  0  1  0  0  0  0  0  0
  1 24  1  0
  1 25  1  0
  1 30  1  0
  2  3  1  0
  2 28  1  0
  3  4  1  0
  3  7  1  0
  4  5  1  0
  4 24  1  0
  5  6  1  0
  5  9  1  0
  6  7  1  0
  7  8  1  0
  8  9  1  0
 10 11  1  0
 10 28  1  0
 10 32  1  0
 11 14  1  0
 11 29  1  0
 12 18  1  0
 12 19  1  0
 12 25  1  0
 13 29  1  0
 13 33  1  0
 14 15  1  0
 14 16  1  0
 14 17  1  0
 18 26  1  0
 19 20  1  0
 20 21  1  0
 20 23  1  0
 21 22  1  0
 22 27  1  0
 23 27  1  0
 23 31  1  0
 24 28  1  0
M  END
$$$$
