9hfy_B_A30_401
     RDKit          3D

 44 49  0  0  0  0  0  0  0  0999 V2000
   37.5790  -29.9860   25.0010 C   0  0  0  0  0  3  0  0  0  0  0  0
   39.0410  -29.7020   24.9390 C   0  0  0  0  0  3  0  0  0  0  0  0
   40.7960  -30.0290   26.5680 C   0  0  0  0  0  2  0  0  0  0  0  0
   41.0860  -30.8820   25.3780 C   0  0  0  0  0  3  0  0  0  0  0  0
   33.8560  -26.5760   24.4980 C   0  0  0  0  0  3  0  0  0  0  0  0
   42.0200  -30.2080   24.3930 C   0  0  0  0  0  2  0  0  0  0  0  0
   41.4730  -30.5580   23.0160 C   0  0  0  0  0  2  0  0  0  0  0  0
   40.1480  -31.2410   23.2560 C   0  0  0  0  0  2  0  0  0  0  0  0
   39.7610  -31.0290   24.6860 C   0  0  0  0  0  3  0  0  0  0  0  0
   39.2070  -28.0900   26.7500 C   0  0  0  0  0  3  0  0  0  0  0  0
   39.7720  -27.5950   28.0460 C   0  0  0  0  0  3  0  0  0  0  0  0
   40.7060  -28.1610   28.9360 C   0  0  0  0  0  2  0  0  0  0  0  0
   40.8790  -27.2490   29.9780 C   0  0  0  0  0  3  0  0  0  0  0  0
   41.7150  -27.2590   31.2000 C   0  0  0  0  0  3  0  0  0  0  0  0
   42.9740  -28.8310   32.6780 C   0  0  0  0  0  1  0  0  0  0  0  0
   41.6290  -26.1350   32.0430 C   0  0  0  0  0  2  0  0  0  0  0  0
   40.7810  -25.0510   31.7330 C   0  0  0  0  0  2  0  0  0  0  0  0
   39.9830  -25.0190   30.5730 C   0  0  0  0  0  2  0  0  0  0  0  0
   40.0140  -26.0960   29.6920 C   0  0  0  0  0  3  0  0  0  0  0  0
   35.4910  -30.9850   22.4980 C   0  0  0  0  0  3  0  0  0  0  0  0
   32.8670  -27.3920   26.4560 C   0  0  0  0  0  2  0  0  0  0  0  0
   34.2310  -31.8080   22.5190 C   0  0  0  0  0  3  0  0  0  0  0  0
   33.1890  -34.0530   22.8220 C   0  0  0  0  0  2  0  0  0  0  0  0
   32.6550  -34.1870   24.2300 C   0  0  0  0  0  3  0  0  0  0  0  0
   31.5220  -35.0010   24.4100 C   0  0  0  0  0  2  0  0  0  0  0  0
   30.9810  -35.1670   25.6970 C   0  0  0  0  0  2  0  0  0  0  0  0
   31.5590  -34.5270   26.8030 C   0  0  0  0  0  2  0  0  0  0  0  0
   32.6810  -33.7040   26.6310 C   0  0  0  0  0  2  0  0  0  0  0  0
   33.2290  -33.5380   25.3460 C   0  0  0  0  0  2  0  0  0  0  0  0
   33.6380  -28.5400   25.8300 C   0  0  0  0  0  2  0  0  0  0  0  0
   34.5130  -27.9040   24.7440 C   0  0  0  0  0  3  0  0  0  0  0  0
   34.6400  -28.7110   23.4600 C   0  0  0  0  0  2  0  0  0  0  0  0
   35.4870  -29.9830   23.6710 C   0  0  0  0  0  3  0  0  0  0  0  0
   36.9010  -29.6760   23.8690 N   0  0  0  0  0  2  0  0  0  0  0  0
   39.6700  -29.1900   26.1570 N   0  0  0  0  0  0  0  0  0  0  0  0
   32.9830  -26.3470   25.4430 N   0  0  0  0  0  2  0  0  0  0  0  0
   39.3950  -26.3900   28.5270 N   0  0  0  0  0  2  0  0  0  0  0  0
   34.3110  -33.1380   22.7410 N   0  0  0  0  0  2  0  0  0  0  0  0
   34.1060  -25.8140   23.5610 O   0  0  0  0  0  1  0  0  0  0  0  0
   37.0300  -30.4440   26.0070 O   0  0  0  0  0  1  0  0  0  0  0  0
   38.2970  -27.4310   26.2380 O   0  0  0  0  0  1  0  0  0  0  0  0
   42.4900  -28.3840   31.3960 O   0  0  0  0  0  0  0  0  0  0  0  0
   36.5670  -31.9130   22.7420 O   0  0  0  0  0  1  0  0  0  0  0  0
   33.1680  -31.2590   22.3390 O   0  0  0  0  0  1  0  0  0  0  0  0
  1  2  1  0
  1 34  1  0
  1 40  1  0
  2  9  1  0
  2 35  1  0
  3  4  1  0
  3 35  1  0
  4  6  1  0
  4  9  1  0
  5 31  1  0
  5 36  1  0
  5 39  1  0
  6  7  1  0
  7  8  1  0
  8  9  1  0
 10 11  1  0
 10 35  1  0
 10 41  1  0
 11 12  1  0
 11 37  1  0
 12 13  1  0
 13 14  1  0
 13 19  1  0
 14 16  1  0
 14 42  1  0
 15 42  1  0
 16 17  1  0
 17 18  1  0
 18 19  1  0
 19 37  1  0
 20 22  1  0
 20 33  1  0
 20 43  1  0
 21 30  1  0
 21 36  1  0
 22 38  1  0
 22 44  1  0
 23 24  1  0
 23 38  1  0
 24 25  1  0
 24 29  1  0
 25 26  1  0
 26 27  1  0
 27 28  1  0
 28 29  1  0
 30 31  1  0
 31 32  1  0
 32 33  1  0
 33 34  1  0
M  END
$$$$
