9hfy_A_A30_401
     RDKit          3D

 44 49  0  0  0  0  0  0  0  0999 V2000
    7.5690   -2.3750    0.4930 C   0  0  0  0  0  3  0  0  0  0  0  0
    6.2630   -2.0740    1.1480 C   0  0  0  0  0  3  0  0  0  0  0  0
    4.7550   -0.1600    1.0210 C   0  0  0  0  0  2  0  0  0  0  0  0
    4.0590   -1.3870    0.5030 C   0  0  0  0  0  3  0  0  0  0  0  0
   12.0100   -3.3840    2.8430 C   0  0  0  0  0  3  0  0  0  0  0  0
    3.2250   -2.1160    1.5300 C   0  0  0  0  0  2  0  0  0  0  0  0
    3.4870   -3.6040    1.3120 C   0  0  0  0  0  2  0  0  0  0  0  0
    4.5070   -3.7060    0.2140 C   0  0  0  0  0  2  0  0  0  0  0  0
    5.1570   -2.3490    0.1300 C   0  0  0  0  0  3  0  0  0  0  0  0
    6.8750   -0.0480    2.3050 C   0  0  0  0  0  3  0  0  0  0  0  0
    6.8040    1.4020    2.5690 C   0  0  0  0  0  3  0  0  0  0  0  0
    6.0610    2.4300    1.9550 C   0  0  0  0  0  2  0  0  0  0  0  0
    6.4690    3.6040    2.5610 C   0  0  0  0  0  3  0  0  0  0  0  0
    6.0840    5.0190    2.3760 C   0  0  0  0  0  3  0  0  0  0  0  0
    4.7780    6.5740    0.9300 C   0  0  0  0  0  1  0  0  0  0  0  0
    6.7160    5.9270    3.2020 C   0  0  0  0  0  2  0  0  0  0  0  0
    7.6640    5.5680    4.1550 C   0  0  0  0  0  2  0  0  0  0  0  0
    8.0350    4.2320    4.3580 C   0  0  0  0  0  2  0  0  0  0  0  0
    7.4370    3.2680    3.5870 C   0  0  0  0  0  3  0  0  0  0  0  0
    8.8230   -5.4120   -0.5190 C   0  0  0  0  0  3  0  0  0  0  0  0
   13.0840   -1.8270    1.5030 C   0  0  0  0  0  2  0  0  0  0  0  0
    9.7750   -5.8170   -1.6430 C   0  0  0  0  0  3  0  0  0  0  0  0
   10.0570   -6.1300   -4.0980 C   0  0  0  0  0  2  0  0  0  0  0  0
   10.8440   -4.9380   -4.6410 C   0  0  0  0  0  3  0  0  0  0  0  0
   11.6640   -5.1770   -5.7560 C   0  0  0  0  0  2  0  0  0  0  0  0
   12.4280   -4.1280   -6.3010 C   0  0  0  0  0  2  0  0  0  0  0  0
   12.3290   -2.8500   -5.7640 C   0  0  0  0  0  2  0  0  0  0  0  0
   11.5420   -2.6050   -4.6440 C   0  0  0  0  0  2  0  0  0  0  0  0
   10.7930   -3.6540   -4.0840 C   0  0  0  0  0  2  0  0  0  0  0  0
   11.9160   -2.3710    0.7140 C   0  0  0  0  0  2  0  0  0  0  0  0
   11.0560   -3.1210    1.7330 C   0  0  0  0  0  3  0  0  0  0  0  0
   10.4340   -4.4010    1.2150 C   0  0  0  0  0  2  0  0  0  0  0  0
    9.3340   -4.1250    0.2020 C   0  0  0  0  0  3  0  0  0  0  0  0
    8.1410   -3.5510    0.8180 N   0  0  0  0  0  2  0  0  0  0  0  0
    6.0290   -0.6700    1.5430 N   0  0  0  0  0  0  0  0  0  0  0  0
   13.1200   -2.6730    2.6900 N   0  0  0  0  0  2  0  0  0  0  0  0
    7.5880    1.9400    3.5170 N   0  0  0  0  0  2  0  0  0  0  0  0
    9.2990   -5.7880   -2.9080 N   0  0  0  0  0  2  0  0  0  0  0  0
   11.8470   -4.1280    3.7880 O   0  0  0  0  0  1  0  0  0  0  0  0
    8.0780   -1.5610   -0.2790 O   0  0  0  0  0  1  0  0  0  0  0  0
    7.8430   -0.6600    2.8090 O   0  0  0  0  0  1  0  0  0  0  0  0
    5.1420    5.2320    1.4040 O   0  0  0  0  0  0  0  0  0  0  0  0
    7.5770   -5.0680   -1.1620 O   0  0  0  0  0  1  0  0  0  0  0  0
   10.9190   -6.2190   -1.3920 O   0  0  0  0  0  1  0  0  0  0  0  0
  1  2  1  0
  1 34  1  0
  1 40  1  0
  2  9  1  0
  2 35  1  0
  3  4  1  0
  3 35  1  0
  4  6  1  0
  4  9  1  0
  5 31  1  0
  5 36  1  0
  5 39  1  0
  6  7  1  0
  7  8  1  0
  8  9  1  0
 10 11  1  0
 10 35  1  0
 10 41  1  0
 11 12  1  0
 11 37  1  0
 12 13  1  0
 13 14  1  0
 13 19  1  0
 14 16  1  0
 14 42  1  0
 15 42  1  0
 16 17  1  0
 17 18  1  0
 18 19  1  0
 19 37  1  0
 20 22  1  0
 20 33  1  0
 20 43  1  0
 21 30  1  0
 21 36  1  0
 22 38  1  0
 22 44  1  0
 23 24  1  0
 23 38  1  0
 24 25  1  0
 24 29  1  0
 25 26  1  0
 26 27  1  0
 27 28  1  0
 28 29  1  0
 30 31  1  0
 31 32  1  0
 32 33  1  0
 33 34  1  0
M  END
$$$$
