9hjh_B_A31_401
     RDKit          3D

 31 33  0  0  0  0  0  0  0  0999 V2000
   20.1100    6.5940   -2.1900 Br  0  0  0  0  0  0  0  0  0  0  0  0
   16.4960    9.6090    1.4510 C   0  0  0  0  0  1  0  0  0  0  0  0
   15.4450   11.9170   -2.3220 C   0  0  0  0  0  2  0  0  0  0  0  0
   14.9410   12.0380   -3.7510 C   0  0  0  0  0  3  0  0  0  0  0  0
   16.0010   11.5320   -4.7170 C   0  0  0  0  0  3  0  0  0  0  0  0
   17.7490   12.0730   -6.3440 C   0  0  0  0  0  2  0  0  0  0  0  0
   17.3490   11.7580   -7.7210 C   0  0  0  0  0  1  0  0  0  0  0  0
   13.5260   13.4650   -5.1560 C   0  0  0  0  0  3  0  0  0  0  0  0
   13.3850   12.3960   -6.1880 C   0  0  0  0  0  3  0  0  0  0  0  0
   17.8290    9.9220    1.2320 C   0  0  0  0  0  2  0  0  0  0  0  0
   12.6420   11.2340   -5.9980 C   0  0  0  0  0  2  0  0  0  0  0  0
   13.0930   10.4680   -8.1150 C   0  0  0  0  0  2  0  0  0  0  0  0
   13.8370   11.5970   -8.3860 C   0  0  0  0  0  3  0  0  0  0  0  0
   13.9890   12.5760   -7.4280 C   0  0  0  0  0  2  0  0  0  0  0  0
   18.4540   10.3590   -2.4980 C   0  0  0  0  0  2  0  0  0  0  0  0
   19.0670    9.1590   -2.8010 C   0  0  0  0  0  2  0  0  0  0  0  0
   19.2610    8.2440   -1.7980 C   0  0  0  0  0  3  0  0  0  0  0  0
   18.2420    9.6970   -0.1940 C   0  0  0  0  0  3  0  0  0  0  0  0
   18.8660    8.4930   -0.5070 C   0  0  0  0  0  2  0  0  0  0  0  0
   18.0330   10.6430   -1.2030 C   0  0  0  0  0  3  0  0  0  0  0  0
   17.3670   11.9490   -0.8620 C   0  0  0  0  0  2  0  0  0  0  0  0
   16.4370   14.0580   -1.6460 C   0  0  0  0  0  2  0  0  0  0  0  0
   15.8430   14.8570   -2.7740 C   0  0  0  0  0  2  0  0  0  0  0  0
   14.4360   14.4960   -3.1870 C   0  0  0  0  0  2  0  0  0  0  0  0
   14.5940   11.8000   -9.9380 Cl  0  0  0  0  0  0  0  0  0  0  0  0
   16.6520   12.4400   -5.4530 N   0  0  0  0  0  2  0  0  0  0  0  0
   14.3480   13.3400   -4.0880 N   0  0  0  0  0  0  0  0  0  0  0  0
   12.4940   10.2820   -6.9290 N   0  0  0  0  0  2  0  0  0  0  0  0
   16.6680   12.6210   -2.0040 N   0  0  0  0  0  0  0  0  0  0  0  0
   16.2190   10.3310   -4.7710 O   0  0  0  0  0  1  0  0  0  0  0  0
   12.8290   14.4590   -5.3270 O   0  0  0  0  0  1  0  0  0  0  0  0
  1 17  1  0
  2 10  1  0
  3  4  1  0
  3 29  1  0
  4  5  1  0
  4 27  1  0
  5 26  1  0
  5 30  1  0
  6  7  1  0
  6 26  1  0
  8  9  1  0
  8 27  1  0
  8 31  1  0
  9 11  1  0
  9 14  1  0
 10 18  1  0
 11 28  1  0
 12 13  1  0
 12 28  1  0
 13 14  1  0
 13 25  1  0
 15 16  1  0
 15 20  1  0
 16 17  1  0
 17 19  1  0
 18 19  1  0
 18 20  1  0
 20 21  1  0
 21 29  1  0
 22 23  1  0
 22 29  1  0
 23 24  1  0
 24 27  1  0
M  END
$$$$
