9j19_A_MIY_401
     RDKit          3D

 33 36  0  0  0  0  0  0  0  0999 V2000
   -6.6760    5.8160  -27.8830 C   0  0  0  0  0  3  0  0  0  0  0  0
  -14.3970    6.2440  -25.6260 C   0  0  0  0  0  3  0  0  0  0  0  0
  -15.5070    5.9590  -26.3980 C   0  0  0  0  0  2  0  0  0  0  0  0
  -15.3840    5.6230  -27.7380 C   0  0  0  0  0  2  0  0  0  0  0  0
  -14.1330    5.5560  -28.3390 C   0  0  0  0  0  3  0  0  0  0  0  0
  -12.9780    5.8190  -27.5760 C   0  0  0  0  0  3  0  0  0  0  0  0
  -11.6760    5.7170  -28.2160 C   0  0  0  0  0  3  0  0  0  0  0  0
  -10.4760    5.9740  -27.4420 C   0  0  0  0  0  3  0  0  0  0  0  0
   -9.2390    5.7090  -27.9360 C   0  0  0  0  0  3  0  0  0  0  0  0
   -8.0220    6.2620  -27.2410 C   0  0  0  0  0  0  0  0  0  0  0  0
   -7.7240    2.6540  -23.8790 C   0  0  0  0  0  1  0  0  0  0  0  0
   -5.6110    5.3030  -27.0540 C   0  0  0  0  0  3  0  0  0  0  0  0
   -6.8260    4.7100  -22.9900 C   0  0  0  0  0  1  0  0  0  0  0  0
   -4.2000    5.3630  -27.5390 C   0  0  0  0  0  3  0  0  0  0  0  0
   -5.9480    4.6630  -25.8570 C   0  0  0  0  0  3  0  0  0  0  0  0
   -7.4050    4.5920  -25.4490 C   0  0  0  0  0  3  0  0  0  0  0  0
   -8.0530    5.9680  -25.7380 C   0  0  0  0  0  3  0  0  0  0  0  0
   -9.4490    6.1980  -25.1310 C   0  0  0  0  0  2  0  0  0  0  0  0
  -10.5710    6.6450  -26.0840 C   0  0  0  0  0  3  0  0  0  0  0  0
  -13.9070    5.6820  -23.2540 C   0  0  0  0  0  1  0  0  0  0  0  0
  -11.9140    6.4360  -25.3540 C   0  0  0  0  0  2  0  0  0  0  0  0
  -13.1130    6.1490  -26.2110 C   0  0  0  0  0  3  0  0  0  0  0  0
  -15.8340    6.9870  -23.6880 C   0  0  0  0  0  1  0  0  0  0  0  0
   -7.6360    4.1050  -24.0510 N   0  0  0  0  0  0  0  0  0  0  0  0
   -3.9090    5.6550  -28.9570 N   0  0  0  0  0  1  0  0  0  0  0  0
  -14.5470    6.5650  -24.2270 N   0  0  0  0  0  0  0  0  0  0  0  0
   -6.5190    6.0210  -29.0970 O   0  0  0  0  0  1  0  0  0  0  0  0
   -5.0320    4.0480  -25.0340 O   0  0  0  0  0  1  0  0  0  0  0  0
  -13.9910    5.2200  -29.6690 O   0  0  0  0  0  1  0  0  0  0  0  0
  -11.6130    5.3880  -29.4490 O   0  0  0  0  0  1  0  0  0  0  0  0
   -9.0430    5.0060  -29.0900 O   0  0  0  0  0  1  0  0  0  0  0  0
   -8.1010    7.6750  -27.4110 O   0  0  0  0  0  1  0  0  0  0  0  0
   -3.2810    5.1380  -26.7700 O   0  0  0  0  0  1  0  0  0  0  0  0
  1 10  1  0
  1 12  1  0
  1 27  1  0
  2  3  1  0
  2 22  1  0
  2 26  1  0
  3  4  1  0
  4  5  1  0
  5  6  1  0
  5 29  1  0
  6  7  1  0
  6 22  1  0
  7  8  1  0
  7 30  1  0
  8  9  1  0
  8 19  1  0
  9 10  1  0
  9 31  1  0
 10 17  1  0
 10 32  1  0
 11 24  1  0
 12 14  1  0
 12 15  1  0
 13 24  1  0
 14 25  1  0
 14 33  1  0
 15 16  1  0
 15 28  1  0
 16 17  1  0
 16 24  1  0
 17 18  1  0
 18 19  1  0
 19 21  1  0
 20 26  1  0
 21 22  1  0
 23 26  1  0
M  END
$$$$
