9lll_A_A33_401
     RDKit          3D

 62 67  0  0  0  0  0  0  0  0999 V2000
  -11.6220   34.9980  -18.9020 C   0  0  0  0  0  3  0  0  0  0  0  0
  -11.8750   33.3210  -17.3620 C   0  0  0  0  0  3  0  0  0  0  0  0
  -13.3530   35.0800  -17.4150 C   0  0  0  0  0  3  0  0  0  0  0  0
  -13.7240   33.3920  -15.7630 C   0  0  0  0  0  0  0  0  0  0  0  0
  -14.6190   32.2490  -16.2580 C   0  0  0  0  0  3  0  0  0  0  0  0
  -10.0170   33.2030  -18.9490 C   0  0  0  0  0  0  0  0  0  0  0  0
   -8.6800   33.6190  -18.3280 C   0  0  0  0  0  3  0  0  0  0  0  0
   -7.5070   32.9820  -18.7210 C   0  0  0  0  0  3  0  0  0  0  0  0
   -6.3020   33.3620  -18.1550 C   0  0  0  0  0  3  0  0  0  0  0  0
   -6.2650   34.3570  -17.1940 C   0  0  0  0  0  3  0  0  0  0  0  0
   -7.4260   34.9810  -16.7970 C   0  0  0  0  0  3  0  0  0  0  0  0
   -8.6350   34.6150  -17.3630 C   0  0  0  0  0  3  0  0  0  0  0  0
  -11.4680   36.8910  -20.5310 C   0  0  0  0  0  3  0  0  0  0  0  0
  -12.1460   36.9150  -21.7570 C   0  0  0  0  0  3  0  0  0  0  0  0
  -12.6500   38.1410  -22.2420 C   0  0  0  0  0  3  0  0  0  0  0  0
  -12.4760   39.3060  -21.5090 C   0  0  0  0  0  3  0  0  0  0  0  0
  -11.7910   39.2840  -20.2700 C   0  0  0  0  0  3  0  0  0  0  0  0
  -11.2900   38.0720  -19.7860 C   0  0  0  0  0  3  0  0  0  0  0  0
  -13.3790   38.5430  -23.4300 C   0  0  0  0  0  3  0  0  0  0  0  0
  -14.2780   40.6460  -24.3200 C   0  0  0  0  0  0  0  0  0  0  0  0
   -7.6120   30.6680  -19.2200 C   0  0  0  0  0  3  0  0  0  0  0  0
   -7.4110   28.3960  -18.0120 C   0  0  0  0  0  3  0  0  0  0  0  0
   -8.3790   28.4270  -19.0280 C   0  0  0  0  0  3  0  0  0  0  0  0
   -8.4920   29.6840  -19.7050 C   0  0  0  0  0  3  0  0  0  0  0  0
   -7.0730   27.1990  -17.1270 C   0  0  0  0  0  2  0  0  0  0  0  0
  -14.9490   31.2140  -15.3910 C   0  0  0  0  0  3  0  0  0  0  0  0
  -16.1780   30.1630  -17.0370 C   0  0  0  0  0  3  0  0  0  0  0  0
  -15.8920   31.1630  -17.9600 C   0  0  0  0  0  3  0  0  0  0  0  0
  -15.0920   32.2290  -17.5620 C   0  0  0  0  0  3  0  0  0  0  0  0
   -7.3230   36.2600  -15.5580 Cl  0  0  0  0  0  0  0  0  0  0  0  0
  -10.4230   38.0180  -18.2270 Cl  0  0  0  0  0  0  0  0  0  0  0  0
   -5.0870   34.7410  -16.6260 F   0  0  0  0  0  0  0  0  0  0  0  0
  -14.3440   34.1750  -15.3360 H   0  0  0  0  0  0  0  0  0  0  0  0
  -13.0440   33.0140  -15.0050 H   0  0  0  0  0  0  0  0  0  0  0  0
  -10.1310   32.1330  -18.8170 H   0  0  0  0  0  0  0  0  0  0  0  0
   -5.3840   32.8790  -18.4660 H   0  0  0  0  0  0  0  0  0  0  0  0
   -9.5480   35.1070  -17.0520 H   0  0  0  0  0  0  0  0  0  0  0  0
  -12.2820   36.0020  -22.3270 H   0  0  0  0  0  0  0  0  0  0  0  0
  -11.6560   40.1980  -19.7020 H   0  0  0  0  0  0  0  0  0  0  0  0
  -13.7000   37.8980  -24.2400 H   0  0  0  0  0  0  0  0  0  0  0  0
  -15.0690   40.0560  -24.7760 H   0  0  0  0  0  0  0  0  0  0  0  0
  -14.7100   41.5160  -23.8330 H   0  0  0  0  0  0  0  0  0  0  0  0
  -13.5800   40.9700  -25.0880 H   0  0  0  0  0  0  0  0  0  0  0  0
   -8.9910   27.5700  -19.2790 H   0  0  0  0  0  0  0  0  0  0  0  0
   -9.1890   29.8600  -20.5150 H   0  0  0  0  0  0  0  0  0  0  0  0
  -16.7960   29.3260  -17.3340 H   0  0  0  0  0  0  0  0  0  0  0  0
  -16.2830   31.1120  -18.9670 H   0  0  0  0  0  0  0  0  0  0  0  0
  -14.8450   33.0250  -18.2540 H   0  0  0  0  0  0  0  0  0  0  0  0
   -9.9830   33.4350  -20.0070 H   0  0  0  0  0  0  0  0  0  0  0  0
  -12.6860   35.6040  -18.4240 N   0  0  0  0  0  2  0  0  0  0  0  0
  -11.1930   33.8590  -18.3780 N   0  0  0  0  0  0  0  0  0  0  0  0
  -12.9510   33.9390  -16.8810 N   0  0  0  0  0  0  0  0  0  0  0  0
  -10.9370   35.6330  -20.0170 N   0  0  0  0  0  2  0  0  0  0  0  0
  -13.5750   39.8380  -23.3360 N   0  0  0  0  0  0  0  0  0  0  0  0
  -13.0480   40.3080  -22.2060 N   0  0  0  0  0  2  0  0  0  0  0  0
   -6.8290   26.3020  -16.4750 N   0  0  0  0  0  1  0  0  0  0  0  0
  -15.7090   30.2190  -15.8060 N   0  0  0  0  0  2  0  0  0  0  0  0
  -14.4810   35.7400  -16.9320 O   0  0  0  0  0  1  0  0  0  0  0  0
  -11.4520   32.1170  -16.7940 O   0  0  0  0  0  1  0  0  0  0  0  0
   -7.5140   31.9810  -19.7110 O   0  0  0  0  0  0  0  0  0  0  0  0
  -14.4590   31.2380  -14.0790 O   0  0  0  0  0  1  0  0  0  0  0  0
   -6.7180   29.9400  -17.9780 S   0  0  0  0  0  0  0  0  0  0  0  0
  1 50  1  0
  1 51  1  0
  1 53  1  0
  2 51  1  0
  2 52  1  0
  2 59  1  0
  3 50  1  0
  3 52  1  0
  3 58  1  0
  4  5  1  0
  4 33  1  0
  4 34  1  0
  4 52  1  0
  5 26  1  0
  5 29  1  0
  6  7  1  0
  6 35  1  0
  6 49  1  0
  6 51  1  0
  7  8  1  0
  7 12  1  0
  8  9  1  0
  8 60  1  0
  9 10  1  0
  9 36  1  0
 10 11  1  0
 10 32  1  0
 11 12  1  0
 11 30  1  0
 12 37  1  0
 13 14  1  0
 13 18  1  0
 13 53  1  0
 14 15  1  0
 14 38  1  0
 15 16  1  0
 15 19  1  0
 16 17  1  0
 16 55  1  0
 17 18  1  0
 17 39  1  0
 18 31  1  0
 19 40  1  0
 19 54  1  0
 20 41  1  0
 20 42  1  0
 20 43  1  0
 20 54  1  0
 21 24  1  0
 21 60  1  0
 21 62  1  0
 22 23  1  0
 22 25  1  0
 22 62  1  0
 23 24  1  0
 23 44  1  0
 24 45  1  0
 25 56  1  0
 26 57  1  0
 26 61  1  0
 27 28  1  0
 27 46  1  0
 27 57  1  0
 28 29  1  0
 28 47  1  0
 29 48  1  0
 54 55  1  0
M  END
$$$$
