9ma6_A_4WI_401
     RDKit          3D

 35 37  0  0  0  0  0  0  0  0999 V2000
   -1.2990   13.4880   14.5000 C   0  0  0  0  0  3  0  0  0  0  0  0
   -3.3350   11.8270   12.4470 C   0  0  0  0  0  2  0  0  0  0  0  0
   -3.1000   13.0520   11.5210 C   0  0  0  0  0  3  0  0  0  0  0  0
   -1.8920   13.8110   12.1380 C   0  0  0  0  0  3  0  0  0  0  0  0
   -1.6050   10.3240   13.5030 C   0  0  0  0  0  3  0  0  0  0  0  0
   -2.4310    9.0370   13.4060 C   0  0  0  0  0  3  0  0  0  0  0  0
   -2.9510    8.5630   14.7780 C   0  0  0  0  0  0  0  0  0  0  0  0
   -3.6170    9.7500   15.5200 C   0  0  0  0  0  1  0  0  0  0  0  0
   -3.9960    7.4520   14.5160 C   0  0  0  0  0  1  0  0  0  0  0  0
   -2.0680   13.7410   10.6000 C   0  0  0  0  0  0  0  0  0  0  0  0
   -1.1110   12.7690    9.8650 C   0  0  0  0  0  1  0  0  0  0  0  0
   -0.0070   14.5010   16.4670 C   0  0  0  0  0  3  0  0  0  0  0  0
   -2.5600   15.0120    9.8890 C   0  0  0  0  0  1  0  0  0  0  0  0
   -1.7200    7.6780   11.4230 C   0  0  0  0  0  3  0  0  0  0  0  0
   -0.7620    6.6490   10.7950 C   0  0  0  0  0  0  0  0  0  0  0  0
   -1.8040    7.9740   15.6380 C   0  0  0  0  0  1  0  0  0  0  0  0
    0.5510   15.9170   16.5410 C   0  0  0  0  0  2  0  0  0  0  0  0
    0.9030   13.5420   17.2600 C   0  0  0  0  0  2  0  0  0  0  0  0
    0.2280   12.0440   17.3980 C   0  0  0  0  0  3  0  0  0  0  0  0
   -0.6680   12.0530   18.2890 C   0  0  0  0  0  2  0  0  0  0  0  0
   -0.4740   10.6890   19.1850 C   0  0  0  0  0  2  0  0  0  0  0  0
    1.3200   10.9840   17.8780 C   0  0  0  0  0  3  0  0  0  0  0  0
   -1.3270   12.9830   13.0410 C   0  0  0  0  0  3  0  0  0  0  0  0
    0.5080    6.9150   11.2320 F   0  0  0  0  0  0  0  0  0  0  0  0
   -0.8110    6.7500    9.4290 F   0  0  0  0  0  0  0  0  0  0  0  0
   -1.1250    5.3870   11.1800 F   0  0  0  0  0  0  0  0  0  0  0  0
   -0.0420   14.0430   15.0790 N   0  0  0  0  0  2  0  0  0  0  0  0
    0.8260   10.4550   19.2000 N   0  0  0  0  0  2  0  0  0  0  0  0
   -2.1440   11.6050   12.9940 N   0  0  0  0  0  0  0  0  0  0  0  0
   -1.5420    8.0560   12.8310 N   0  0  0  0  0  2  0  0  0  0  0  0
   -0.1230   16.7320   17.5610 N   0  0  0  0  0  1  0  0  0  0  0  0
    2.4990   11.5400   18.0020 O   0  0  0  0  0  1  0  0  0  0  0  0
   -2.2760   13.4060   15.1700 O   0  0  0  0  0  1  0  0  0  0  0  0
   -0.5050   10.3130   13.9570 O   0  0  0  0  0  1  0  0  0  0  0  0
   -2.5930    8.1660   10.7800 O   0  0  0  0  0  1  0  0  0  0  0  0
  1 23  1  0
  1 27  1  0
  1 33  1  0
  2  3  1  0
  2 29  1  0
  3  4  1  0
  3 10  1  0
  4 10  1  0
  4 23  1  0
  5  6  1  0
  5 29  1  0
  5 34  1  0
  6  7  1  0
  6 30  1  0
  7  8  1  0
  7  9  1  0
  7 16  1  0
 10 11  1  0
 10 13  1  0
 12 17  1  0
 12 18  1  0
 12 27  1  0
 14 15  1  0
 14 30  1  0
 14 35  1  0
 15 24  1  0
 15 25  1  0
 15 26  1  0
 17 31  1  0
 18 19  1  0
 19 20  1  0
 19 22  1  0
 20 21  1  0
 21 28  1  0
 22 28  1  0
 22 32  1  0
 23 29  1  0
M  END
$$$$
