9ma6_B_4WI_401
     RDKit          3D

 35 37  0  0  0  0  0  0  0  0999 V2000
   36.5590   13.8380   42.5030 C   0  0  0  0  0  3  0  0  0  0  0  0
   38.4770   12.0950   44.5660 C   0  0  0  0  0  2  0  0  0  0  0  0
   38.2800   13.3510   45.4580 C   0  0  0  0  0  3  0  0  0  0  0  0
   37.0790   14.1260   44.8470 C   0  0  0  0  0  3  0  0  0  0  0  0
   36.7180   10.6480   43.4920 C   0  0  0  0  0  3  0  0  0  0  0  0
   37.5300    9.3550   43.5980 C   0  0  0  0  0  3  0  0  0  0  0  0
   38.0310    8.9000   42.2140 C   0  0  0  0  0  0  0  0  0  0  0  0
   38.7760   10.0710   41.5200 C   0  0  0  0  0  1  0  0  0  0  0  0
   39.0060    7.7300   42.4700 C   0  0  0  0  0  1  0  0  0  0  0  0
   37.2770   14.0760   46.3810 C   0  0  0  0  0  0  0  0  0  0  0  0
   36.3230   13.1200   47.1350 C   0  0  0  0  0  1  0  0  0  0  0  0
   35.3290   14.7500   40.4430 C   0  0  0  0  0  3  0  0  0  0  0  0
   37.8140   15.3470   47.0660 C   0  0  0  0  0  1  0  0  0  0  0  0
   36.8160    8.1380   45.6570 C   0  0  0  0  0  3  0  0  0  0  0  0
   35.9290    7.0970   46.3710 C   0  0  0  0  0  0  0  0  0  0  0  0
   36.8640    8.4130   41.3170 C   0  0  0  0  0  1  0  0  0  0  0  0
   34.9410   16.2260   40.4380 C   0  0  0  0  0  2  0  0  0  0  0  0
   34.3300   13.9380   39.5990 C   0  0  0  0  0  2  0  0  0  0  0  0
   34.7270   12.3400   39.5380 C   0  0  0  0  0  3  0  0  0  0  0  0
   35.7880   12.1660   38.8820 C   0  0  0  0  0  2  0  0  0  0  0  0
   35.6430   10.6930   38.1620 C   0  0  0  0  0  2  0  0  0  0  0  0
   33.6230   11.5770   38.6860 C   0  0  0  0  0  3  0  0  0  0  0  0
   36.5040   13.3060   43.9470 C   0  0  0  0  0  3  0  0  0  0  0  0
   34.7030    7.0580   45.7640 F   0  0  0  0  0  0  0  0  0  0  0  0
   35.7600    7.4580   47.6810 F   0  0  0  0  0  0  0  0  0  0  0  0
   36.5120    5.8600   46.3020 F   0  0  0  0  0  0  0  0  0  0  0  0
   35.3010   14.2440   41.8150 N   0  0  0  0  0  2  0  0  0  0  0  0
   34.3530   10.3930   38.1020 N   0  0  0  0  0  2  0  0  0  0  0  0
   37.2850   11.9110   44.0070 N   0  0  0  0  0  0  0  0  0  0  0  0
   36.6840    8.3550   44.2080 N   0  0  0  0  0  2  0  0  0  0  0  0
   35.1200   16.8330   39.1110 N   0  0  0  0  0  1  0  0  0  0  0  0
   32.6340   11.2070   39.4630 O   0  0  0  0  0  1  0  0  0  0  0  0
   37.6000   13.9050   41.9400 O   0  0  0  0  0  1  0  0  0  0  0  0
   35.6300   10.6640   43.0180 O   0  0  0  0  0  1  0  0  0  0  0  0
   37.6080    8.7760   46.2730 O   0  0  0  0  0  1  0  0  0  0  0  0
  1 23  1  0
  1 27  1  0
  1 33  1  0
  2  3  1  0
  2 29  1  0
  3  4  1  0
  3 10  1  0
  4 10  1  0
  4 23  1  0
  5  6  1  0
  5 29  1  0
  5 34  1  0
  6  7  1  0
  6 30  1  0
  7  8  1  0
  7  9  1  0
  7 16  1  0
 10 11  1  0
 10 13  1  0
 12 17  1  0
 12 18  1  0
 12 27  1  0
 14 15  1  0
 14 30  1  0
 14 35  1  0
 15 24  1  0
 15 25  1  0
 15 26  1  0
 17 31  1  0
 18 19  1  0
 19 20  1  0
 19 22  1  0
 20 21  1  0
 21 28  1  0
 22 28  1  0
 22 32  1  0
 23 29  1  0
M  END
$$$$
