9mdq_A_A34_401
     RDKit          3D

 34 36  0  0  0  0  0  0  0  0999 V2000
  -20.1590   24.3730    0.7940 C   0  0  0  0  0  3  0  0  0  0  0  0
  -21.9120   25.7540    5.5800 C   0  0  0  0  0  2  0  0  0  0  0  0
  -22.7030   24.7080    6.0550 C   0  0  0  0  0  2  0  0  0  0  0  0
  -22.1680   23.8170    6.9070 C   0  0  0  0  0  2  0  0  0  0  0  0
  -20.0280   24.9480    6.8030 C   0  0  0  0  0  3  0  0  0  0  0  0
  -20.8390   29.0580    4.6690 C   0  0  0  0  0  3  0  0  0  0  0  0
  -21.0790   30.1650    3.6510 C   0  0  0  0  0  1  0  0  0  0  0  0
  -20.7520   23.2050    0.1350 C   0  0  0  0  0  3  0  0  0  0  0  0
  -21.5600   23.0090   -0.9610 C   0  0  0  0  0  2  0  0  0  0  0  0
  -21.7660   21.6240   -1.0910 C   0  0  0  0  0  3  0  0  0  0  0  0
  -22.5080   20.8090   -1.9730 C   0  0  0  0  0  3  0  0  0  0  0  0
  -19.9870   26.7860    0.7910 C   0  0  0  0  0  3  0  0  0  0  0  0
  -22.5060   19.4420   -1.8000 C   0  0  0  0  0  2  0  0  0  0  0  0
  -23.9760   20.7140   -3.8600 C   0  0  0  0  0  1  0  0  0  0  0  0
  -21.0400   21.0020   -0.0600 C   0  0  0  0  0  3  0  0  0  0  0  0
  -21.0390   19.6290    0.1130 C   0  0  0  0  0  2  0  0  0  0  0  0
  -21.7740   18.8700   -0.7550 C   0  0  0  0  0  2  0  0  0  0  0  0
  -20.2620   27.8980   -0.2210 C   0  0  0  0  0  2  0  0  0  0  0  0
  -19.3120   27.8230   -1.4170 C   0  0  0  0  0  3  0  0  0  0  0  0
  -17.9990   28.4910   -1.0190 C   0  0  0  0  0  1  0  0  0  0  0  0
  -19.8470   28.4350   -2.6760 C   0  0  0  0  0  1  0  0  0  0  0  0
  -20.5780   27.1030    2.1590 C   0  0  0  0  0  3  0  0  0  0  0  0
  -19.6130   26.9770    5.4340 C   0  0  0  0  0  2  0  0  0  0  0  0
  -20.5600   25.8750    5.9180 C   0  0  0  0  0  3  0  0  0  0  0  0
  -20.4750   25.5640    0.2640 N   0  0  0  0  0  2  0  0  0  0  0  0
  -19.7000   27.4810    3.1070 N   0  0  0  0  0  2  0  0  0  0  0  0
  -20.1160   27.8730    4.3690 N   0  0  0  0  0  0  0  0  0  0  0  0
  -20.8620   23.9460    7.2750 N   0  0  0  0  0  2  0  0  0  0  0  0
  -20.4290   21.9900    0.6660 N   0  0  0  0  0  2  0  0  0  0  0  0
  -19.4210   24.2830    1.7810 O   0  0  0  0  0  1  0  0  0  0  0  0
  -21.7690   26.9310    2.3950 O   0  0  0  0  0  1  0  0  0  0  0  0
  -18.8490   24.9480    7.1570 O   0  0  0  0  0  1  0  0  0  0  0  0
  -21.1590   29.3140    5.8310 O   0  0  0  0  0  1  0  0  0  0  0  0
  -23.1860   21.4930   -2.9360 O   0  0  0  0  0  0  0  0  0  0  0  0
  1  8  1  0
  1 25  1  0
  1 30  1  0
  2  3  1  0
  2 24  1  0
  3  4  1  0
  4 28  1  0
  5 24  1  0
  5 28  1  0
  5 32  1  0
  6  7  1  0
  6 27  1  0
  6 33  1  0
  8  9  1  0
  8 29  1  0
  9 10  1  0
 10 11  1  0
 10 15  1  0
 11 13  1  0
 11 34  1  0
 12 18  1  0
 12 22  1  0
 12 25  1  0
 13 17  1  0
 14 34  1  0
 15 16  1  0
 15 29  1  0
 16 17  1  0
 18 19  1  0
 19 20  1  0
 19 21  1  0
 22 26  1  0
 22 31  1  0
 23 24  1  0
 23 27  1  0
 26 27  1  0
M  END
$$$$
