9mei_A_V2M_402
     RDKit          3D

 67 69  0  0  0  0  0  0  0  0999 V2000
   13.0590   11.0760   27.5750 C   0  0  0  0  0  0  0  0  0  0  0  0
   12.4380    7.8130   25.9740 C   0  0  0  0  0  3  0  0  0  0  0  0
   12.0910    9.0090   25.2680 C   0  0  0  0  0  3  0  0  0  0  0  0
   11.5700    5.3380   25.6160 C   0  0  0  0  0  3  0  0  0  0  0  0
   12.3140    3.4160   26.9530 C   0  0  0  0  0  0  0  0  0  0  0  0
   13.3400    3.1610   28.0980 C   0  0  0  0  0  0  0  0  0  0  0  0
   14.7780    3.4170   27.6420 C   0  0  0  0  0  0  0  0  0  0  0  0
   15.6910    3.4510   28.8790 C   0  0  0  0  0  0  0  0  0  0  0  0
   15.2410    2.3900   26.6210 C   0  0  0  0  0  0  0  0  0  0  0  0
   10.9140    3.0620   27.5410 C   0  0  0  0  0  3  0  0  0  0  0  0
    9.1250    1.3050   27.4930 C   0  0  0  0  0  0  0  0  0  0  0  0
    8.1800    1.1570   26.2800 C   0  0  0  0  0  0  0  0  0  0  0  0
    7.5480    2.5020   25.8990 C   0  0  0  0  0  0  0  0  0  0  0  0
    6.6530    3.1960   26.9570 C   0  0  0  0  0  0  0  0  0  0  0  0
   12.4870   10.3640   25.3830 C   0  0  0  0  0  3  0  0  0  0  0  0
    5.5380    3.8740   26.1540 C   0  0  0  0  0  0  0  0  0  0  0  0
    6.6260    2.3180   24.6880 C   0  0  0  0  0  3  0  0  0  0  0  0
    9.4020    0.0260   28.3170 C   0  0  0  0  0  3  0  0  0  0  0  0
   10.3400    0.4510   29.4760 C   0  0  0  0  0  0  0  0  0  0  0  0
   11.9360   11.2920   24.5200 C   0  0  0  0  0  3  0  0  0  0  0  0
   10.9880   10.9050   23.5420 C   0  0  0  0  0  3  0  0  0  0  0  0
   10.5720    9.5950   23.4010 C   0  0  0  0  0  3  0  0  0  0  0  0
   11.1340    8.6610   24.2750 C   0  0  0  0  0  3  0  0  0  0  0  0
   11.7360    6.7790   25.3470 C   0  0  0  0  0  3  0  0  0  0  0  0
   12.2980   10.3880   27.9410 H   0  0  0  0  0  0  0  0  0  0  0  0
   12.4880    2.8380   26.0420 H   0  0  0  0  0  0  0  0  0  0  0  0
   13.2430    2.1260   28.4510 H   0  0  0  0  0  0  0  0  0  0  0  0
   13.1030    3.8080   28.9530 H   0  0  0  0  0  0  0  0  0  0  0  0
   14.8330    4.4010   27.1640 H   0  0  0  0  0  0  0  0  0  0  0  0
   15.5430    2.5620   29.4990 H   0  0  0  0  0  0  0  0  0  0  0  0
   15.4830    4.3290   29.4950 H   0  0  0  0  0  0  0  0  0  0  0  0
   16.7440    3.4860   28.5870 H   0  0  0  0  0  0  0  0  0  0  0  0
   15.9560    1.6960   27.0730 H   0  0  0  0  0  0  0  0  0  0  0  0
   14.3910    1.8130   26.2450 H   0  0  0  0  0  0  0  0  0  0  0  0
   15.7260    2.8830   25.7740 H   0  0  0  0  0  0  0  0  0  0  0  0
   13.9690   11.0570   28.1720 H   0  0  0  0  0  0  0  0  0  0  0  0
   10.9550    1.3430   26.4130 H   0  0  0  0  0  0  0  0  0  0  0  0
    8.6330    1.9800   28.1950 H   0  0  0  0  0  0  0  0  0  0  0  0
    7.4060    0.4270   26.5250 H   0  0  0  0  0  0  0  0  0  0  0  0
    8.7470    0.7500   25.4400 H   0  0  0  0  0  0  0  0  0  0  0  0
    8.3270    3.2150   25.6010 H   0  0  0  0  0  0  0  0  0  0  0  0
    7.2160    3.9360   27.5290 H   0  0  0  0  0  0  0  0  0  0  0  0
    6.2330    2.4730   27.6580 H   0  0  0  0  0  0  0  0  0  0  0  0
    4.5720    3.8100   26.6700 H   0  0  0  0  0  0  0  0  0  0  0  0
    5.7590    4.9330   25.9720 H   0  0  0  0  0  0  0  0  0  0  0  0
    4.7840    3.1260   24.2200 H   0  0  0  0  0  0  0  0  0  0  0  0
   12.6770   12.0840   27.4180 H   0  0  0  0  0  0  0  0  0  0  0  0
    7.5260   -0.5670   28.2050 H   0  0  0  0  0  0  0  0  0  0  0  0
    9.8570    1.2730   30.0200 H   0  0  0  0  0  0  0  0  0  0  0  0
   11.2710    0.8300   29.0380 H   0  0  0  0  0  0  0  0  0  0  0  0
   10.9570   -0.2500   31.1820 H   0  0  0  0  0  0  0  0  0  0  0  0
   12.2220   12.3340   24.5770 H   0  0  0  0  0  0  0  0  0  0  0  0
   10.5810   11.6670   22.8870 H   0  0  0  0  0  0  0  0  0  0  0  0
    9.8460    9.3080   22.6490 H   0  0  0  0  0  0  0  0  0  0  0  0
   10.2950    6.7330   23.8510 H   0  0  0  0  0  0  0  0  0  0  0  0
   13.1070    7.7350   26.8160 H   0  0  0  0  0  0  0  0  0  0  0  0
   13.2180    5.3070   26.7960 H   0  0  0  0  0  0  0  0  0  0  0  0
   12.3580    4.8280   26.5570 N   0  0  0  0  0  0  0  0  0  0  0  0
   10.4090    1.8700   27.0800 N   0  0  0  0  0  0  0  0  0  0  0  0
    5.5310    3.1000   24.8970 N   0  0  0  0  0  0  0  0  0  0  0  0
   10.9320    7.3080   24.3820 N   0  0  0  0  0  0  0  0  0  0  0  0
   10.7400    4.6710   25.0080 O   0  0  0  0  0  1  0  0  0  0  0  0
   13.4160   10.6140   26.3330 O   0  0  0  0  0  0  0  0  0  0  0  0
   10.3060    3.7950   28.3290 O   0  0  0  0  0  1  0  0  0  0  0  0
    6.8500    1.6050   23.7380 O   0  0  0  0  0  1  0  0  0  0  0  0
    8.2290   -0.5070   28.9000 O   0  0  0  0  0  0  0  0  0  0  0  0
   10.6120   -0.6400   30.3600 O   0  0  0  0  0  0  0  0  0  0  0  0
  1 25  1  0
  1 36  1  0
  1 47  1  0
  1 63  1  0
  2  3  1  0
  2 24  1  0
  2 56  1  0
  3 15  1  0
  3 23  1  0
  4 24  1  0
  4 58  1  0
  4 62  1  0
  5  6  1  0
  5 10  1  0
  5 26  1  0
  5 58  1  0
  6  7  1  0
  6 27  1  0
  6 28  1  0
  7  8  1  0
  7  9  1  0
  7 29  1  0
  8 30  1  0
  8 31  1  0
  8 32  1  0
  9 33  1  0
  9 34  1  0
  9 35  1  0
 10 59  1  0
 10 64  1  0
 11 12  1  0
 11 18  1  0
 11 38  1  0
 11 59  1  0
 12 13  1  0
 12 39  1  0
 12 40  1  0
 13 14  1  0
 13 17  1  0
 13 41  1  0
 14 16  1  0
 14 42  1  0
 14 43  1  0
 15 20  1  0
 15 63  1  0
 16 44  1  0
 16 45  1  0
 16 60  1  0
 17 60  1  0
 17 65  1  0
 18 19  1  0
 18 66  1  0
 19 49  1  0
 19 50  1  0
 19 67  1  0
 20 21  1  0
 20 52  1  0
 21 22  1  0
 21 53  1  0
 22 23  1  0
 22 54  1  0
 23 61  1  0
 24 61  1  0
 37 59  1  0
 46 60  1  0
 48 66  1  0
 51 67  1  0
 55 61  1  0
 57 58  1  0
M  END
$$$$
