9mei_B_V2M_401
     RDKit          3D

134321  0  0  0  0  0  0  0  0999 V2000
  -24.1380  -23.6440   -4.0610 C   0  0  0  0  0  9  0  0  0  0  0  0
  -23.9980  -23.7370   -4.0580 C   0  0  0  0  0  8  0  0  0  0  0  0
  -21.9010  -23.0610   -0.3960 C   0  0  0  0  0  7  0  0  0  0  0  0
  -21.8810  -23.0740   -0.4140 C   0  0  0  0  0  7  0  0  0  0  0  0
  -22.1240  -22.1430   -1.4580 C   0  0  0  0  0  7  0  0  0  0  0  0
  -22.0610  -22.1630   -1.4750 C   0  0  0  0  0  7  0  0  0  0  0  0
  -20.7790  -22.7880    1.9210 C   0  0  0  0  0  7  0  0  0  0  0  0
  -20.5690  -22.7870    1.8470 C   0  0  0  0  0  7  0  0  0  0  0  0
  -20.4680  -24.5100    3.6020 C   0  0  0  0  0  8  0  0  0  0  0  0
  -20.0680  -24.6140    3.3760 C   0  0  0  0  0  8  0  0  0  0  0  0
  -21.0400  -25.9280    3.9100 C   0  0  0  0  0  8  0  0  0  0  0  0
  -20.8260  -25.9610    3.7560 C   0  0  0  0  0  8  0  0  0  0  0  0
  -22.5430  -25.9010    4.2110 C   0  0  0  0  0  8  0  0  0  0  0  0
  -22.3180  -25.8310    4.1080 C   0  0  0  0  0  9  0  0  0  0  0  0
  -23.1620  -27.2720    3.9440 C   0  0  0  0  0  8  0  0  0  0  0  0
  -23.0140  -27.2000    4.0820 C   0  0  0  0  0  7  0  0  0  0  0  0
  -22.7980  -25.4370    5.6390 C   0  0  0  0  0  8  0  0  0  0  0  0
  -22.5650  -25.1880    5.4680 C   0  0  0  0  0  8  0  0  0  0  0  0
  -18.9250  -24.6770    3.4640 C   0  0  0  0  0  7  0  0  0  0  0  0
  -18.5980  -24.8360    3.3690 C   0  0  0  0  0  6  0  0  0  0  0  0
  -16.7870  -24.3020    4.7440 C   0  0  0  0  0  8  0  0  0  0  0  0
  -16.5810  -24.3980    4.7820 C   0  0  0  0  0  9  0  0  0  0  0  0
  -16.2250  -22.8950    4.9120 C   0  0  0  0  0  8  0  0  0  0  0  0
  -16.0410  -22.9960    4.9830 C   0  0  0  0  0  8  0  0  0  0  0  0
  -15.8350  -22.2710    3.5660 C   0  0  0  0  0  9  0  0  0  0  0  0
  -15.8100  -22.3000    3.6330 C   0  0  0  0  0  9  0  0  0  0  0  0
  -14.8540  -23.0250    2.6620 C   0  0  0  0  0  8  0  0  0  0  0  0
  -14.7440  -23.0030    2.7530 C   0  0  0  0  0  8  0  0  0  0  0  0
  -22.8160  -22.2260   -2.6870 C   0  0  0  0  0  7  0  0  0  0  0  0
  -22.6650  -22.2990   -2.7390 C   0  0  0  0  0  7  0  0  0  0  0  0
  -14.1820  -21.8920    1.8640 C   0  0  0  0  0  9  0  0  0  0  0  0
  -14.1130  -21.8870    1.8960 C   0  0  0  0  0  9  0  0  0  0  0  0
  -15.2160  -20.8800    3.7600 C   0  0  0  0  0  7  0  0  0  0  0  0
  -15.1340  -20.9430    3.8410 C   0  0  0  0  0  7  0  0  0  0  0  0
  -16.4730  -25.3260    5.8810 C   0  0  0  0  0  7  0  0  0  0  0  0
  -16.4000  -25.4030    5.9550 C   0  0  0  0  0  7  0  0  0  0  0  0
  -17.3110  -26.6120    5.6340 C   0  0  0  0  0  8  0  0  0  0  0  0
  -17.2030  -26.6360    5.4950 C   0  0  0  0  0  8  0  0  0  0  0  0
  -22.8770  -21.1040   -3.5020 C   0  0  0  0  0  7  0  0  0  0  0  0
  -22.6720  -21.2140   -3.6000 C   0  0  0  0  0  7  0  0  0  0  0  0
  -22.2520  -19.8990   -3.1080 C   0  0  0  0  0  7  0  0  0  0  0  0
  -22.0750  -19.9940   -3.2110 C   0  0  0  0  0  7  0  0  0  0  0  0
  -21.5670  -19.7800   -1.9160 C   0  0  0  0  0  7  0  0  0  0  0  0
  -21.4720  -19.8250   -1.9780 C   0  0  0  0  0  7  0  0  0  0  0  0
  -21.5120  -20.9170   -1.0980 C   0  0  0  0  0  7  0  0  0  0  0  0
  -21.4730  -20.9280   -1.1110 C   0  0  0  0  0  7  0  0  0  0  0  0
  -21.1810  -22.3770    0.5760 C   0  0  0  0  0  7  0  0  0  0  0  0
  -21.1550  -22.3700    0.5710 C   0  0  0  0  0  7  0  0  0  0  0  0
  -24.9600  -22.9320   -3.9940 H   0  0  0  0  0  2  0  0  0  0  0  0
  -24.7980  -23.0010   -3.9860 H   0  0  0  0  0  3  0  0  0  0  0  0
  -20.7140  -23.7750    4.3720 H   0  0  0  0  0  2  0  0  0  0  0  0
  -20.3500  -23.8530    4.1070 H   0  0  0  0  0  3  0  0  0  0  0  0
  -20.8490  -26.5900    3.0550 H   0  0  0  0  0  3  0  0  0  0  0  0
  -20.7260  -26.6600    2.9150 H   0  0  0  0  0  2  0  0  0  0  0  0
  -20.5020  -26.3580    4.7650 H   0  0  0  0  0  3  0  0  0  0  0  0
  -20.3060  -26.4190    4.6080 H   0  0  0  0  0  3  0  0  0  0  0  0
  -23.0280  -25.2050    3.5170 H   0  0  0  0  0  3  0  0  0  0  0  0
  -22.7450  -25.2010    3.3200 H   0  0  0  0  0  3  0  0  0  0  0  0
  -23.0550  -27.5510    2.8920 H   0  0  0  0  0  2  0  0  0  0  0  0
  -22.9750  -27.6390    3.0820 H   0  0  0  0  0  3  0  0  0  0  0  0
  -24.2280  -27.2720    4.1850 H   0  0  0  0  0  2  0  0  0  0  0  0
  -24.0650  -27.1100    4.3690 H   0  0  0  0  0  3  0  0  0  0  0  0
  -22.6790  -28.0430    4.5490 H   0  0  0  0  0  3  0  0  0  0  0  0
  -22.5340  -27.8960    4.7750 H   0  0  0  0  0  2  0  0  0  0  0  0
  -23.0490  -26.2880    6.2800 H   0  0  0  0  0  2  0  0  0  0  0  0
  -22.6530  -25.9540    6.2440 H   0  0  0  0  0  3  0  0  0  0  0  0
  -23.6280  -24.7250    5.6690 H   0  0  0  0  0  3  0  0  0  0  0  0
  -23.4890  -24.6030    5.4530 H   0  0  0  0  0  3  0  0  0  0  0  0
  -21.9090  -24.9470    6.0480 H   0  0  0  0  0  3  0  0  0  0  0  0
  -21.7390  -24.5210    5.7320 H   0  0  0  0  0  2  0  0  0  0  0  0
  -23.4780  -23.4490   -4.9040 H   0  0  0  0  0  3  0  0  0  0  0  0
  -23.3580  -23.5810   -4.9250 H   0  0  0  0  0  3  0  0  0  0  0  0
  -18.7840  -23.8830    5.3380 H   0  0  0  0  0  2  0  0  0  0  0  0
  -18.6060  -23.8840    5.1640 H   0  0  0  0  0  3  0  0  0  0  0  0
  -16.3130  -24.7230    3.8560 H   0  0  0  0  0  3  0  0  0  0  0  0
  -16.0200  -24.8360    3.9550 H   0  0  0  0  0  2  0  0  0  0  0  0
  -15.3580  -22.9420    5.5740 H   0  0  0  0  0  3  0  0  0  0  0  0
  -15.1100  -23.0540    5.5510 H   0  0  0  0  0  2  0  0  0  0  0  0
  -16.9740  -22.2780    5.4140 H   0  0  0  0  0  2  0  0  0  0  0  0
  -16.7480  -22.4280    5.5920 H   0  0  0  0  0  3  0  0  0  0  0  0
  -16.7670  -22.1010    3.1330 H   0  0  0  0  0  3  0  0  0  0  0  0
  -16.7370  -22.1420    2.9520 H   0  0  0  0  0  3  0  0  0  0  0  0
  -14.1070  -23.6120    3.1990 H   0  0  0  0  0  3  0  0  0  0  0  0
  -13.9970  -23.4610    3.4040 H   0  0  0  0  0  2  0  0  0  0  0  0
  -15.3970  -23.6960    1.9940 H   0  0  0  0  0  2  0  0  0  0  0  0
  -15.1690  -23.7840    2.1210 H   0  0  0  0  0  3  0  0  0  0  0  0
  -13.1520  -22.1430    1.5860 H   0  0  0  0  0  3  0  0  0  0  0  0
  -13.0630  -22.0940    1.6570 H   0  0  0  0  0  3  0  0  0  0  0  0
  -14.7360  -21.6540    0.9470 H   0  0  0  0  0  3  0  0  0  0  0  0
  -14.6540  -21.7350    0.9540 H   0  0  0  0  0  3  0  0  0  0  0  0
  -13.6970  -19.8970    2.7380 H   0  0  0  0  0  3  0  0  0  0  0  0
  -13.6520  -19.9620    2.7720 H   0  0  0  0  0  3  0  0  0  0  0  0
  -24.4710  -24.6790   -4.0150 H   0  0  0  0  0  3  0  0  0  0  0  0
  -24.3570  -24.7620   -3.9750 H   0  0  0  0  0  3  0  0  0  0  0  0
  -14.6060  -24.7190    5.9290 H   0  0  0  0  0  3  0  0  0  0  0  0
  -14.5240  -25.0520    6.3630 H   0  0  0  0  0  3  0  0  0  0  0  0
  -17.1150  -26.9200    4.6000 H   0  0  0  0  0  3  0  0  0  0  0  0
  -16.8670  -26.9300    4.4930 H   0  0  0  0  0  2  0  0  0  0  0  0
  -18.3540  -26.2780    5.7010 H   0  0  0  0  0  2  0  0  0  0  0  0
  -18.2780  -26.4230    5.4480 H   0  0  0  0  0  3  0  0  0  0  0  0
  -16.3550  -27.3100    7.1040 H   0  0  0  0  0  2  0  0  0  0  0  0
  -16.2120  -28.0730    6.2740 H   0  0  0  0  0  2  0  0  0  0  0  0
  -23.4010  -21.1330   -4.4470 H   0  0  0  0  0  3  0  0  0  0  0  0
  -23.1300  -21.2820   -4.5770 H   0  0  0  0  0  3  0  0  0  0  0  0
  -22.3180  -19.0440   -3.7710 H   0  0  0  0  0  3  0  0  0  0  0  0
  -22.0950  -19.1660   -3.9100 H   0  0  0  0  0  3  0  0  0  0  0  0
  -21.0940  -18.8500   -1.6270 H   0  0  0  0  0  3  0  0  0  0  0  0
  -21.0200  -18.8820   -1.6960 H   0  0  0  0  0  3  0  0  0  0  0  0
  -20.5160  -20.4010    0.7400 H   0  0  0  0  0  3  0  0  0  0  0  0
  -20.3560  -20.4650    0.6520 H   0  0  0  0  0  3  0  0  0  0  0  0
  -22.2790  -24.0690   -0.3380 H   0  0  0  0  0  3  0  0  0  0  0  0
  -22.1810  -24.1090   -0.3970 H   0  0  0  0  0  3  0  0  0  0  0  0
  -21.9110  -24.3330    2.0830 H   0  0  0  0  0  0  0  0  0  0  0  0
  -20.0520  -24.6100    1.2700 H   0  0  0  0  0  0  0  0  0  0  0  0
  -21.0070  -23.9680    2.3590 N   0  0  0  0  0  6  0  0  0  0  0  0
  -20.4040  -24.0870    2.0630 N   0  0  0  0  0  6  0  0  0  0  0  0
  -18.2460  -24.2580    4.5700 N   0  0  0  0  0  7  0  0  0  0  0  0
  -18.0140  -24.3360    4.4820 N   0  0  0  0  0  6  0  0  0  0  0  0
  -14.2510  -20.7380    2.7960 N   0  0  0  0  0  7  0  0  0  0  0  0
  -14.2290  -20.7880    2.8250 N   0  0  0  0  0  7  0  0  0  0  0  0
  -20.9680  -21.0900    0.1570 N   0  0  0  0  0  7  0  0  0  0  0  0
  -20.9160  -21.1150    0.1210 N   0  0  0  0  0  7  0  0  0  0  0  0
  -20.8550  -22.0010    2.8590 O   0  0  0  0  0  3  0  0  0  0  0  0
  -19.7020  -22.0930    2.3860 O   0  0  0  0  0  3  0  0  0  0  0  0
  -23.3660  -23.4410   -2.9190 O   0  0  0  0  0  5  0  0  0  0  0  0
  -23.1890  -23.5270   -2.9470 O   0  0  0  0  0  5  0  0  0  0  0  0
  -18.3790  -25.1470    2.4720 O   0  0  0  0  0  3  0  0  0  0  0  0
  -18.0210  -25.3930    2.4550 O   0  0  0  0  0  3  0  0  0  0  0  0
  -15.5320  -20.0770    4.6230 O   0  0  0  0  0  3  0  0  0  0  0  0
  -15.3660  -20.1680    4.7530 O   0  0  0  0  0  3  0  0  0  0  0  0
  -15.1010  -25.5800    5.8920 O   0  0  0  0  0  5  0  0  0  0  0  0
  -15.0630  -25.8020    5.9960 O   0  0  0  0  0  5  0  0  0  0  0  0
  -17.0780  -27.6990    6.5300 O   0  0  0  0  0  5  0  0  0  0  0  0
  -16.9430  -27.6830    6.4340 O   0  0  0  0  0  5  0  0  0  0  0  0
  1  2  1  0
  1 49  1  0
  1 50  1  0
  1 71  1  0
  1 72  1  0
  1 93  1  0
  1 94  1  0
  1125  1  0
  1126  1  0
  2 50  1  0
  2 71  1  0
  2 72  1  0
  2 93  1  0
  2 94  1  0
  2125  1  0
  2126  1  0
  3  4  1  0
  3  5  1  0
  3  6  1  0
  3 47  1  0
  3 48  1  0
  3111  1  0
  3112  1  0
  4  5  1  0
  4  6  1  0
  4 47  1  0
  4 48  1  0
  4111  1  0
  4112  1  0
  5  6  1  0
  5 29  1  0
  5 30  1  0
  5 45  1  0
  5 46  1  0
  6 29  1  0
  6 30  1  0
  6 45  1  0
  6 46  1  0
  7  8  1  0
  7 47  1  0
  7 48  1  0
  7115  1  0
  7116  1  0
  7123  1  0
  7124  1  0
  8 47  1  0
  8 48  1  0
  8115  1  0
  8116  1  0
  8123  1  0
  8124  1  0
  9 10  1  0
  9 11  1  0
  9 12  1  0
  9 19  1  0
  9 51  1  0
  9 52  1  0
  9115  1  0
  9116  1  0
 10 11  1  0
 10 12  1  0
 10 19  1  0
 10 20  1  0
 10 52  1  0
 10115  1  0
 10116  1  0
 11 12  1  0
 11 13  1  0
 11 14  1  0
 11 53  1  0
 11 55  1  0
 11 56  1  0
 12 14  1  0
 12 53  1  0
 12 54  1  0
 12 55  1  0
 12 56  1  0
 13 14  1  0
 13 15  1  0
 13 16  1  0
 13 17  1  0
 13 18  1  0
 13 57  1  0
 13 58  1  0
 14 15  1  0
 14 16  1  0
 14 17  1  0
 14 18  1  0
 14 57  1  0
 14 58  1  0
 15 16  1  0
 15 59  1  0
 15 60  1  0
 15 61  1  0
 15 62  1  0
 15 63  1  0
 16 60  1  0
 16 62  1  0
 16 63  1  0
 16 64  1  0
 17 18  1  0
 17 65  1  0
 17 66  1  0
 17 67  1  0
 17 68  1  0
 17 69  1  0
 18 66  1  0
 18 67  1  0
 18 68  1  0
 18 69  1  0
 18 70  1  0
 19 20  1  0
 19117  1  0
 19118  1  0
 19127  1  0
 19128  1  0
 20117  1  0
 20118  1  0
 20127  1  0
 20128  1  0
 21 22  1  0
 21 23  1  0
 21 24  1  0
 21 35  1  0
 21 36  1  0
 21 75  1  0
 21117  1  0
 21118  1  0
 22 23  1  0
 22 24  1  0
 22 35  1  0
 22 36  1  0
 22 75  1  0
 22 76  1  0
 22117  1  0
 22118  1  0
 23 24  1  0
 23 25  1  0
 23 26  1  0
 23 77  1  0
 23 79  1  0
 23 80  1  0
 24 25  1  0
 24 26  1  0
 24 77  1  0
 24 78  1  0
 24 80  1  0
 25 26  1  0
 25 27  1  0
 25 28  1  0
 25 33  1  0
 25 34  1  0
 25 81  1  0
 25 82  1  0
 26 27  1  0
 26 28  1  0
 26 33  1  0
 26 34  1  0
 26 81  1  0
 26 82  1  0
 27 28  1  0
 27 31  1  0
 27 32  1  0
 27 83  1  0
 27 85  1  0
 27 86  1  0
 28 31  1  0
 28 32  1  0
 28 83  1  0
 28 84  1  0
 28 86  1  0
 29 30  1  0
 29 39  1  0
 29 40  1  0
 29125  1  0
 29126  1  0
 30 39  1  0
 30 40  1  0
 30125  1  0
 30126  1  0
 31 32  1  0
 31 87  1  0
 31 88  1  0
 31 89  1  0
 31 90  1  0
 31119  1  0
 31120  1  0
 32 87  1  0
 32 88  1  0
 32 89  1  0
 32 90  1  0
 32119  1  0
 32120  1  0
 33 34  1  0
 33119  1  0
 33120  1  0
 33129  1  0
 33130  1  0
 34119  1  0
 34120  1  0
 34129  1  0
 34130  1  0
 35 36  1  0
 35 37  1  0
 35 38  1  0
 35131  1  0
 35132  1  0
 36 37  1  0
 36 38  1  0
 36131  1  0
 36132  1  0
 37 38  1  0
 37 97  1  0
 37 99  1  0
 37100  1  0
 37133  1  0
 37134  1  0
 38 97  1  0
 38 98  1  0
 38100  1  0
 38133  1  0
 38134  1  0
 39 40  1  0
 39 41  1  0
 39 42  1  0
 39103  1  0
 39104  1  0
 40 41  1  0
 40 42  1  0
 40103  1  0
 40104  1  0
 41 42  1  0
 41 43  1  0
 41 44  1  0
 41105  1  0
 41106  1  0
 42 43  1  0
 42 44  1  0
 42105  1  0
 42106  1  0
 43 44  1  0
 43 45  1  0
 43 46  1  0
 43107  1  0
 43108  1  0
 44 45  1  0
 44 46  1  0
 44107  1  0
 44108  1  0
 45 46  1  0
 45121  1  0
 45122  1  0
 46121  1  0
 46122  1  0
 47 48  1  0
 47121  1  0
 47122  1  0
 48121  1  0
 48122  1  0
 49 50  1  0
 51 52  1  0
 53 54  1  0
 55 56  1  0
 57 58  1  0
 59 60  1  0
 61 62  1  0
 63 64  1  0
 65 66  1  0
 67 68  1  0
 69 70  1  0
 71 72  1  0
 73 74  1  0
 73117  1  0
 74117  1  0
 74118  1  0
 75 76  1  0
 77 78  1  0
 79 80  1  0
 81 82  1  0
 83 84  1  0
 85 86  1  0
 87 88  1  0
 89 90  1  0
 91 92  1  0
 91119  1  0
 91120  1  0
 92119  1  0
 92120  1  0
 93 94  1  0
 95 96  1  0
 95131  1  0
 95132  1  0
 96131  1  0
 96132  1  0
 97 98  1  0
 99100  1  0
101133  1  0
101134  1  0
102133  1  0
102134  1  0
103104  1  0
105106  1  0
107108  1  0
109110  1  0
109121  1  0
109122  1  0
110121  1  0
110122  1  0
111112  1  0
113115  1  0
114116  1  0
115116  1  0
117118  1  0
119120  1  0
121122  1  0
123124  1  0
125126  1  0
127128  1  0
129130  1  0
131132  1  0
133134  1  0
M  END
$$$$
