9mvq_A_A40_402
     RDKit          3D

 34 39  0  0  0  0  0  0  0  0999 V2000
   17.5550   24.5670  -18.6260 C   0  0  0  0  0  3  0  0  0  0  0  0
   17.1220   24.9490  -17.3700 C   0  0  0  0  0  2  0  0  0  0  0  0
   17.5980   24.2810  -16.2540 C   0  0  0  0  0  2  0  0  0  0  0  0
   18.5090   23.2550  -16.4050 C   0  0  0  0  0  2  0  0  0  0  0  0
   18.9360   22.9060  -17.6690 C   0  0  0  0  0  3  0  0  0  0  0  0
   19.9090   21.7690  -17.8570 C   0  0  0  0  0  3  0  0  0  0  0  0
   21.2100   21.6930  -17.1450 C   0  0  0  0  0  3  0  0  0  0  0  0
   22.3210   24.0040  -14.6080 C   0  0  0  0  0  3  0  0  0  0  0  0
   22.4800   24.3830  -13.2580 C   0  0  0  0  0  2  0  0  0  0  0  0
   22.0080   23.5390  -12.2660 C   0  0  0  0  0  2  0  0  0  0  0  0
   21.3750   22.3360  -12.5870 C   0  0  0  0  0  2  0  0  0  0  0  0
   21.2180   21.9580  -13.9130 C   0  0  0  0  0  2  0  0  0  0  0  0
   21.7130   22.8140  -14.9280 C   0  0  0  0  0  3  0  0  0  0  0  0
   22.1070   20.5440  -17.4000 C   0  0  0  0  0  3  0  0  0  0  0  0
   22.5240   18.3970  -18.5820 C   0  0  0  0  0  3  0  0  0  0  0  0
   22.4600   17.2100  -17.8730 C   0  0  0  0  0  2  0  0  0  0  0  0
   24.1630   16.3280  -19.1750 C   0  0  0  0  0  2  0  0  0  0  0  0
   24.2760   17.5320  -19.9420 C   0  0  0  0  0  3  0  0  0  0  0  0
   25.2230   17.6410  -21.0000 C   0  0  0  0  0  2  0  0  0  0  0  0
   25.3170   18.8200  -21.7380 C   0  0  0  0  0  2  0  0  0  0  0  0
   24.4700   19.8940  -21.4360 C   0  0  0  0  0  2  0  0  0  0  0  0
   23.5400   19.7790  -20.4040 C   0  0  0  0  0  2  0  0  0  0  0  0
   23.4530   18.5700  -19.6530 C   0  0  0  0  0  3  0  0  0  0  0  0
   20.3660   19.5850  -18.9990 C   0  0  0  0  0  3  0  0  0  0  0  0
   18.4600   23.5440  -18.7900 C   0  0  0  0  0  2  0  0  0  0  0  0
   16.9440   25.3950  -20.0640 Cl  0  0  0  0  0  0  0  0  0  0  0  0
   21.6970   22.7370  -16.2770 N   0  0  0  0  0  0  0  0  0  0  0  0
   22.3100   23.8430  -16.7930 N   0  0  0  0  0  2  0  0  0  0  0  0
   22.6930   24.6370  -15.7500 N   0  0  0  0  0  2  0  0  0  0  0  0
   21.6630   19.5140  -18.2980 N   0  0  0  0  0  0  0  0  0  0  0  0
   23.2880   16.2110  -18.1860 N   0  0  0  0  0  2  0  0  0  0  0  0
   19.4830   20.7330  -18.7550 N   0  0  0  0  0  2  0  0  0  0  0  0
   23.1510   20.4680  -16.8450 O   0  0  0  0  0  1  0  0  0  0  0  0
   20.0230   18.7300  -19.7450 O   0  0  0  0  0  1  0  0  0  0  0  0
  1  2  1  0
  1 25  1  0
  1 26  1  0
  2  3  1  0
  3  4  1  0
  4  5  1  0
  5  6  1  0
  5 25  1  0
  6  7  1  0
  6 32  1  0
  7 14  1  0
  7 27  1  0
  8  9  1  0
  8 13  1  0
  8 29  1  0
  9 10  1  0
 10 11  1  0
 11 12  1  0
 12 13  1  0
 13 27  1  0
 14 30  1  0
 14 33  1  0
 15 16  1  0
 15 23  1  0
 15 30  1  0
 16 31  1  0
 17 18  1  0
 17 31  1  0
 18 19  1  0
 18 23  1  0
 19 20  1  0
 20 21  1  0
 21 22  1  0
 22 23  1  0
 24 30  1  0
 24 32  1  0
 24 34  1  0
 27 28  1  0
 28 29  1  0
M  END
$$$$
