9n3m_A_A41_401
     RDKit          3D

 32 35  0  0  0  0  0  0  0  0999 V2000
   19.1860   18.0630   27.5930 C   0  0  0  0  0  3  0  0  0  0  0  0
   19.1390   16.5830   27.2130 C   0  0  0  0  0  3  0  0  0  0  0  0
   19.9340   15.8370   28.2900 C   0  0  0  0  0  2  0  0  0  0  0  0
   19.1430   14.7340   29.0350 C   0  0  0  0  0  3  0  0  0  0  0  0
   19.6920   13.3460   28.7240 C   0  0  0  0  0  2  0  0  0  0  0  0
   18.2960   13.7410   28.2310 C   0  0  0  0  0  2  0  0  0  0  0  0
   19.1770   16.8940   24.7380 C   0  0  0  0  0  3  0  0  0  0  0  0
   19.7270   16.5880   23.3390 C   0  0  0  0  0  3  0  0  0  0  0  0
   20.4740   15.4790   22.9390 C   0  0  0  0  0  2  0  0  0  0  0  0
   20.7110   15.6320   21.5460 C   0  0  0  0  0  3  0  0  0  0  0  0
   21.3940   14.8690   20.5530 C   0  0  0  0  0  3  0  0  0  0  0  0
   22.7110   13.0290   19.8020 C   0  0  0  0  0  1  0  0  0  0  0  0
   21.4270   15.3320   19.2340 C   0  0  0  0  0  2  0  0  0  0  0  0
   20.7870   16.5270   18.8730 C   0  0  0  0  0  2  0  0  0  0  0  0
   20.1180   17.2690   19.8320 C   0  0  0  0  0  2  0  0  0  0  0  0
   20.0850   16.8070   21.1760 C   0  0  0  0  0  3  0  0  0  0  0  0
   17.9900   19.9620   28.7940 C   0  0  0  0  0  3  0  0  0  0  0  0
   17.6060   19.9000   30.2770 C   0  0  0  0  0  2  0  0  0  0  0  0
   16.9120   20.7230   28.0110 C   0  0  0  0  0  2  0  0  0  0  0  0
   17.4220   21.2020   26.5540 C   0  0  0  0  0  3  0  0  0  0  0  0
   16.3250   22.1760   25.8650 C   0  0  0  0  0  3  0  0  0  0  0  0
   18.4370   22.8970   25.1940 C   0  0  0  0  0  2  0  0  0  0  0  0
   18.5030   21.8950   26.5940 C   0  0  0  0  0  2  0  0  0  0  0  0
   19.7580   16.2850   25.9260 N   0  0  0  0  0  2  0  0  0  0  0  0
   19.4940   17.3520   22.2800 N   0  0  0  0  0  2  0  0  0  0  0  0
   18.0470   18.5910   28.3460 N   0  0  0  0  0  2  0  0  0  0  0  0
   17.1670   23.2230   25.0080 N   0  0  0  0  0  2  0  0  0  0  0  0
   20.1210   18.7430   27.3020 O   0  0  0  0  0  1  0  0  0  0  0  0
   22.0390   13.6510   20.8780 O   0  0  0  0  0  0  0  0  0  0  0  0
   18.2340   17.6030   24.8370 O   0  0  0  0  0  1  0  0  0  0  0  0
   17.8450   21.1920   30.7940 O   0  0  0  0  0  1  0  0  0  0  0  0
   15.1420   22.1110   25.9760 O   0  0  0  0  0  1  0  0  0  0  0  0
  1  2  1  0
  1 26  1  0
  1 28  1  0
  2  3  1  0
  2 24  1  0
  3  4  1  0
  4  5  1  0
  4  6  1  0
  5  6  1  0
  7  8  1  0
  7 24  1  0
  7 30  1  0
  8  9  1  0
  8 25  1  0
  9 10  1  0
 10 11  1  0
 10 16  1  0
 11 13  1  0
 11 29  1  0
 12 29  1  0
 13 14  1  0
 14 15  1  0
 15 16  1  0
 16 25  1  0
 17 18  1  0
 17 19  1  0
 17 26  1  0
 18 31  1  0
 19 20  1  0
 20 21  1  0
 20 23  1  0
 21 27  1  0
 21 32  1  0
 22 23  1  0
 22 27  1  0
M  END
$$$$
