9n6f_A_A18_401
     RDKit          3D

 68 70  0  0  0  0  0  0  0  0999 V2000
   10.4380   24.6240   23.4950 C   0  0  0  0  0  0  0  0  0  0  0  0
    7.4350   27.3500   26.4030 C   0  0  0  0  0  3  0  0  0  0  0  0
    7.1820   26.8690   27.7100 C   0  0  0  0  0  3  0  0  0  0  0  0
    6.2640   27.5940   28.5060 C   0  0  0  0  0  3  0  0  0  0  0  0
    5.6080   28.7420   28.0100 C   0  0  0  0  0  3  0  0  0  0  0  0
    5.8530   29.1920   26.7220 C   0  0  0  0  0  3  0  0  0  0  0  0
    6.8020   28.4520   25.9130 C   0  0  0  0  0  3  0  0  0  0  0  0
    7.1360   28.8480   24.4930 C   0  0  0  0  0  0  0  0  0  0  0  0
    7.0730   27.6270   23.5890 C   0  0  0  0  0  0  0  0  0  0  0  0
    7.8410   27.9270   22.3240 C   0  0  0  0  0  3  0  0  0  0  0  0
    7.8490   28.8540   19.9530 C   0  0  0  0  0  0  0  0  0  0  0  0
    9.3730   23.4510   23.3260 C   0  0  0  0  0  0  0  0  0  0  0  0
    7.5920   30.3390   19.6420 C   0  0  0  0  0  2  0  0  0  0  0  0
    7.3690   27.9690   18.8150 C   0  0  0  0  0  0  0  0  0  0  0  0
    7.9690   26.5700   18.9220 C   0  0  0  0  0  0  0  0  0  0  0  0
    9.4820   26.4480   18.9590 C   0  0  0  0  0  0  0  0  0  0  0  0
    9.7190   25.1680   18.1560 C   0  0  0  0  0  0  0  0  0  0  0  0
    7.5190   25.7350   17.7310 C   0  0  0  0  0  3  0  0  0  0  0  0
    9.9780   22.1480   23.9120 C   0  0  0  0  0  0  0  0  0  0  0  0
    9.0330   23.2440   21.8340 C   0  0  0  0  0  0  0  0  0  0  0  0
    8.1330   23.8560   24.1270 C   0  0  0  0  0  0  0  0  0  0  0  0
    6.3220   22.7560   25.4400 C   0  0  0  0  0  3  0  0  0  0  0  0
    5.1950   21.7120   25.5130 C   0  0  0  0  0  0  0  0  0  0  0  0
    7.4950   25.1190   23.5210 C   0  0  0  0  0  3  0  0  0  0  0  0
    8.4290   26.6060   25.4600 C   0  0  0  0  0  0  0  0  0  0  0  0
    4.0760   22.2560   24.9860 F   0  0  0  0  0  0  0  0  0  0  0  0
    5.5560   20.6710   24.7470 F   0  0  0  0  0  0  0  0  0  0  0  0
    4.9640   21.3740   26.8260 F   0  0  0  0  0  0  0  0  0  0  0  0
   11.3960   24.2760   23.2020 H   0  0  0  0  0  0  0  0  0  0  0  0
    8.5250   24.0050   25.1430 H   0  0  0  0  0  0  0  0  0  0  0  0
    6.8730   22.2890   23.4200 H   0  0  0  0  0  0  0  0  0  0  0  0
    9.3130   27.2200   25.2890 H   0  0  0  0  0  0  0  0  0  0  0  0
    8.6900   25.6360   25.8830 H   0  0  0  0  0  0  0  0  0  0  0  0
    7.6660   25.9920   28.0810 H   0  0  0  0  0  0  0  0  0  0  0  0
    6.0590   27.2620   29.5190 H   0  0  0  0  0  0  0  0  0  0  0  0
    4.8890   29.2900   28.6570 H   0  0  0  0  0  0  0  0  0  0  0  0
    5.3460   30.0770   26.3280 H   0  0  0  0  0  0  0  0  0  0  0  0
    8.1500   29.2780   24.4590 H   0  0  0  0  0  0  0  0  0  0  0  0
    6.4130   29.6020   24.1420 H   0  0  0  0  0  0  0  0  0  0  0  0
   10.1580   25.4460   22.8840 H   0  0  0  0  0  0  0  0  0  0  0  0
    6.0540   27.4270   23.3580 H   0  0  0  0  0  0  0  0  0  0  0  0
    6.1600   28.6350   21.2520 H   0  0  0  0  0  0  0  0  0  0  0  0
    8.8950   28.7040   20.0770 H   0  0  0  0  0  0  0  0  0  0  0  0
    8.3030   32.0120   18.9110 H   0  0  0  0  0  0  0  0  0  0  0  0
    6.3000   27.8990   18.8480 H   0  0  0  0  0  0  0  0  0  0  0  0
    7.6600   28.4080   17.8810 H   0  0  0  0  0  0  0  0  0  0  0  0
    7.6390   26.1710   19.8880 H   0  0  0  0  0  0  0  0  0  0  0  0
    9.8380   26.3390   19.9760 H   0  0  0  0  0  0  0  0  0  0  0  0
    9.9510   27.2980   18.4790 H   0  0  0  0  0  0  0  0  0  0  0  0
   10.4670   24.9310   24.5100 H   0  0  0  0  0  0  0  0  0  0  0  0
   10.6040   25.2890   17.5230 H   0  0  0  0  0  0  0  0  0  0  0  0
    9.8460   24.3230   18.8400 H   0  0  0  0  0  0  0  0  0  0  0  0
    8.3750   24.0990   16.7660 H   0  0  0  0  0  0  0  0  0  0  0  0
   10.0740   22.2460   24.9910 H   0  0  0  0  0  0  0  0  0  0  0  0
    9.3260   21.3090   23.6810 H   0  0  0  0  0  0  0  0  0  0  0  0
   10.9590   21.9750   23.4760 H   0  0  0  0  0  0  0  0  0  0  0  0
    9.7570   22.5700   21.3880 H   0  0  0  0  0  0  0  0  0  0  0  0
    8.0390   22.8180   21.7440 H   0  0  0  0  0  0  0  0  0  0  0  0
    9.0640   24.1990   21.3200 H   0  0  0  0  0  0  0  0  0  0  0  0
    7.0770   22.8680   24.1930 N   0  0  0  0  0  0  0  0  0  0  0  0
    7.6910   26.4260   24.2060 N   0  0  0  0  0  0  0  0  0  0  0  0
    7.1210   28.4930   21.1940 N   0  0  0  0  0  0  0  0  0  0  0  0
    8.4690   31.0640   19.1060 N   0  0  0  0  0  2  0  0  0  0  0  0
    8.5230   24.9550   17.3120 N   0  0  0  0  0  0  0  0  0  0  0  0
    6.5720   23.4410   26.3800 O   0  0  0  0  0  1  0  0  0  0  0  0
    6.8490   25.1470   22.5180 O   0  0  0  0  0  1  0  0  0  0  0  0
    9.0030   27.7150   22.2420 O   0  0  0  0  0  1  0  0  0  0  0  0
    6.4480   25.7820   17.2630 O   0  0  0  0  0  1  0  0  0  0  0  0
  1 12  1  0
  1 29  1  0
  1 40  1  0
  1 50  1  0
  2  3  1  0
  2  7  1  0
  2 25  1  0
  3  4  1  0
  3 34  1  0
  4  5  1  0
  4 35  1  0
  5  6  1  0
  5 36  1  0
  6  7  1  0
  6 37  1  0
  7  8  1  0
  8  9  1  0
  8 38  1  0
  8 39  1  0
  9 10  1  0
  9 41  1  0
  9 61  1  0
 10 62  1  0
 10 67  1  0
 11 13  1  0
 11 14  1  0
 11 43  1  0
 11 62  1  0
 12 19  1  0
 12 20  1  0
 12 21  1  0
 13 63  1  0
 14 15  1  0
 14 45  1  0
 14 46  1  0
 15 16  1  0
 15 18  1  0
 15 47  1  0
 16 17  1  0
 16 48  1  0
 16 49  1  0
 17 51  1  0
 17 52  1  0
 17 64  1  0
 18 64  1  0
 18 68  1  0
 19 54  1  0
 19 55  1  0
 19 56  1  0
 20 57  1  0
 20 58  1  0
 20 59  1  0
 21 24  1  0
 21 30  1  0
 21 60  1  0
 22 23  1  0
 22 60  1  0
 22 65  1  0
 23 26  1  0
 23 27  1  0
 23 28  1  0
 24 61  1  0
 24 66  1  0
 25 32  1  0
 25 33  1  0
 25 61  1  0
 31 60  1  0
 42 62  1  0
 44 63  1  0
 53 64  1  0
M  END
$$$$
