9nnw_A_A35_401
     RDKit          3D

 84 88  0  0  0  0  0  0  0  0999 V2000
    6.5190   28.5310   28.6470 C   0  0  0  0  0  3  0  0  0  0  0  0
    7.2890   27.6720   27.8770 C   0  0  0  0  0  3  0  0  0  0  0  0
    7.3640   27.8680   26.4790 C   0  0  0  0  0  3  0  0  0  0  0  0
    8.1920   26.9560   25.5800 C   0  0  0  0  0  0  0  0  0  0  0  0
    7.2390   25.3330   23.7640 C   0  0  0  0  0  3  0  0  0  0  0  0
    7.7840   24.0870   24.4680 C   0  0  0  0  0  0  0  0  0  0  0  0
    9.0900   23.6100   23.7890 C   0  0  0  0  0  0  0  0  0  0  0  0
    9.5850   22.3460   24.5150 C   0  0  0  0  0  0  0  0  0  0  0  0
    8.8870   23.3550   22.3000 C   0  0  0  0  0  0  0  0  0  0  0  0
   10.1630   24.7040   23.9650 C   0  0  0  0  0  0  0  0  0  0  0  0
    5.9280   22.8880   25.6470 C   0  0  0  0  0  3  0  0  0  0  0  0
    4.7520   21.9280   25.5350 C   0  0  0  0  0  0  0  0  0  0  0  0
    6.9020   27.7660   23.6110 C   0  0  0  0  0  0  0  0  0  0  0  0
    7.8210   28.0430   22.3840 C   0  0  0  0  0  3  0  0  0  0  0  0
    7.9910   28.9360   19.9920 C   0  0  0  0  0  0  0  0  0  0  0  0
    7.6240   28.1000   18.7650 C   0  0  0  0  0  0  0  0  0  0  0  0
    8.1180   26.6560   18.8950 C   0  0  0  0  0  0  0  0  0  0  0  0
    7.6040   25.8840   17.6530 C   0  0  0  0  0  3  0  0  0  0  0  0
   10.0190   24.8410   17.5540 C   0  0  0  0  0  0  0  0  0  0  0  0
   10.0810   25.2190   18.9540 C   0  0  0  0  0  0  0  0  0  0  0  0
    9.5280   26.5390   19.1830 C   0  0  0  0  0  0  0  0  0  0  0  0
    7.7000   30.4270   19.8010 C   0  0  0  0  0  3  0  0  0  0  0  0
    8.1230   31.1780   21.0820 C   0  0  0  0  0  3  0  0  0  0  0  0
    9.5580   32.0310   22.6840 C   0  0  0  0  0  3  0  0  0  0  0  0
   10.7950   32.2860   23.2890 C   0  0  0  0  0  3  0  0  0  0  0  0
   10.8220   33.0000   24.4800 C   0  0  0  0  0  3  0  0  0  0  0  0
    9.6290   33.4380   25.0680 C   0  0  0  0  0  3  0  0  0  0  0  0
    8.3940   33.1730   24.4560 C   0  0  0  0  0  3  0  0  0  0  0  0
    8.3610   32.4480   23.2570 C   0  0  0  0  0  3  0  0  0  0  0  0
    6.7800   29.0950   24.3830 C   0  0  0  0  0  0  0  0  0  0  0  0
    6.6810   28.8960   25.9150 C   0  0  0  0  0  3  0  0  0  0  0  0
    5.8850   29.7710   26.6930 C   0  0  0  0  0  3  0  0  0  0  0  0
    5.8170   29.5820   28.0720 C   0  0  0  0  0  3  0  0  0  0  0  0
    6.4520   28.3480   30.0020 F   0  0  0  0  0  0  0  0  0  0  0  0
    4.2810   21.5380   26.7550 F   0  0  0  0  0  0  0  0  0  0  0  0
    5.1560   20.8460   24.8120 F   0  0  0  0  0  0  0  0  0  0  0  0
    3.7840   22.6240   24.8610 F   0  0  0  0  0  0  0  0  0  0  0  0
    7.8280   26.8560   28.3430 H   0  0  0  0  0  0  0  0  0  0  0  0
    9.1270   27.4450   25.3340 H   0  0  0  0  0  0  0  0  0  0  0  0
    8.4020   26.0310   26.1010 H   0  0  0  0  0  0  0  0  0  0  0  0
    8.0950   24.2360   25.4930 H   0  0  0  0  0  0  0  0  0  0  0  0
    9.5030   22.4890   25.5890 H   0  0  0  0  0  0  0  0  0  0  0  0
    8.9790   21.4950   24.2150 H   0  0  0  0  0  0  0  0  0  0  0  0
   10.6240   22.1610   24.2530 H   0  0  0  0  0  0  0  0  0  0  0  0
    9.6950   22.7330   21.9260 H   0  0  0  0  0  0  0  0  0  0  0  0
    8.8830   24.3010   21.7680 H   0  0  0  0  0  0  0  0  0  0  0  0
    7.9390   22.8480   22.1460 H   0  0  0  0  0  0  0  0  0  0  0  0
    9.9380   25.5390   23.3140 H   0  0  0  0  0  0  0  0  0  0  0  0
   10.1700   25.0410   24.9940 H   0  0  0  0  0  0  0  0  0  0  0  0
   11.1350   24.3000   23.7110 H   0  0  0  0  0  0  0  0  0  0  0  0
    6.4320   22.7210   23.5760 H   0  0  0  0  0  0  0  0  0  0  0  0
    5.9120   27.4590   23.3030 H   0  0  0  0  0  0  0  0  0  0  0  0
    6.1800   28.7280   21.1480 H   0  0  0  0  0  0  0  0  0  0  0  0
    9.0410   28.7310   20.1290 H   0  0  0  0  0  0  0  0  0  0  0  0
    6.5420   28.0970   18.6490 H   0  0  0  0  0  0  0  0  0  0  0  0
    8.0730   28.5520   17.8810 H   0  0  0  0  0  0  0  0  0  0  0  0
    7.6770   26.2350   19.7890 H   0  0  0  0  0  0  0  0  0  0  0  0
    8.2120   24.0860   16.6450 H   0  0  0  0  0  0  0  0  0  0  0  0
   10.6720   25.4940   16.9860 H   0  0  0  0  0  0  0  0  0  0  0  0
   10.3640   23.8170   17.4520 H   0  0  0  0  0  0  0  0  0  0  0  0
   11.1130   25.2100   19.2750 H   0  0  0  0  0  0  0  0  0  0  0  0
    9.5230   24.4990   19.5370 H   0  0  0  0  0  0  0  0  0  0  0  0
    9.6850   26.7960   20.2200 H   0  0  0  0  0  0  0  0  0  0  0  0
   10.0610   27.2410   18.5600 H   0  0  0  0  0  0  0  0  0  0  0  0
   11.7100   31.9350   22.8390 H   0  0  0  0  0  0  0  0  0  0  0  0
   11.7720   33.2190   24.9570 H   0  0  0  0  0  0  0  0  0  0  0  0
    9.6600   33.9870   26.0020 H   0  0  0  0  0  0  0  0  0  0  0  0
    7.4780   33.5230   24.9050 H   0  0  0  0  0  0  0  0  0  0  0  0
    9.3210   31.0970   18.9830 H   0  0  0  0  0  0  0  0  0  0  0  0
    5.8790   29.5980   24.0490 H   0  0  0  0  0  0  0  0  0  0  0  0
    7.6660   29.6870   24.1770 H   0  0  0  0  0  0  0  0  0  0  0  0
    5.3360   30.5750   26.2240 H   0  0  0  0  0  0  0  0  0  0  0  0
    5.2240   30.2490   28.6880 H   0  0  0  0  0  0  0  0  0  0  0  0
    7.4620   26.6700   24.3620 N   0  0  0  0  0  0  0  0  0  0  0  0
    6.6820   23.1690   24.4350 N   0  0  0  0  0  0  0  0  0  0  0  0
    7.1750   28.5910   21.1700 N   0  0  0  0  0  0  0  0  0  0  0  0
    8.5980   24.9430   16.9820 N   0  0  0  0  0  0  0  0  0  0  0  0
    9.4490   31.2870   21.4530 N   0  0  0  0  0  2  0  0  0  0  0  0
    6.2010   23.4060   26.6730 O   0  0  0  0  0  1  0  0  0  0  0  0
    6.6050   25.2760   22.7340 O   0  0  0  0  0  1  0  0  0  0  0  0
    6.4870   26.0050   17.2750 O   0  0  0  0  0  1  0  0  0  0  0  0
    8.4160   30.9610   18.7260 O   0  0  0  0  0  0  0  0  0  0  0  0
    8.9860   27.8330   22.4090 O   0  0  0  0  0  1  0  0  0  0  0  0
    7.1210   31.9350   22.2240 S   0  0  0  0  0  0  0  0  0  0  0  0
  1  2  1  0
  1 33  1  0
  1 34  1  0
  2  3  1  0
  2 38  1  0
  3  4  1  0
  3 31  1  0
  4 39  1  0
  4 40  1  0
  4 74  1  0
  5  6  1  0
  5 74  1  0
  5 80  1  0
  6  7  1  0
  6 41  1  0
  6 75  1  0
  7  8  1  0
  7  9  1  0
  7 10  1  0
  8 42  1  0
  8 43  1  0
  8 44  1  0
  9 45  1  0
  9 46  1  0
  9 47  1  0
 10 48  1  0
 10 49  1  0
 10 50  1  0
 11 12  1  0
 11 75  1  0
 11 79  1  0
 12 35  1  0
 12 36  1  0
 12 37  1  0
 13 14  1  0
 13 30  1  0
 13 52  1  0
 13 74  1  0
 14 76  1  0
 14 83  1  0
 15 16  1  0
 15 22  1  0
 15 54  1  0
 15 76  1  0
 16 17  1  0
 16 55  1  0
 16 56  1  0
 17 18  1  0
 17 21  1  0
 17 57  1  0
 18 77  1  0
 18 81  1  0
 19 20  1  0
 19 59  1  0
 19 60  1  0
 19 77  1  0
 20 21  1  0
 20 61  1  0
 20 62  1  0
 21 63  1  0
 21 64  1  0
 22 23  1  0
 22 82  1  0
 23 78  1  0
 23 84  1  0
 24 25  1  0
 24 29  1  0
 24 78  1  0
 25 26  1  0
 25 65  1  0
 26 27  1  0
 26 66  1  0
 27 28  1  0
 27 67  1  0
 28 29  1  0
 28 68  1  0
 29 84  1  0
 30 31  1  0
 30 70  1  0
 30 71  1  0
 31 32  1  0
 32 33  1  0
 32 72  1  0
 33 73  1  0
 51 75  1  0
 53 76  1  0
 58 77  1  0
 69 82  1  0
M  END
$$$$
