9o6d_A_V2M_401
     RDKit          3D

 62 64  0  0  0  0  0  0  0  0999 V2000
   13.2320   11.8910   26.9570 C   0  0  0  0  0  0  0  0  0  0  0  0
   11.8810    7.7530   25.8530 C   0  0  0  0  0  3  0  0  0  0  0  0
   11.5960    8.9250   25.2270 C   0  0  0  0  0  3  0  0  0  0  0  0
   11.1290    5.3080   25.5490 C   0  0  0  0  0  3  0  0  0  0  0  0
   11.8440    3.4820   26.9780 C   0  0  0  0  0  0  0  0  0  0  0  0
   12.8750    3.1670   28.0840 C   0  0  0  0  0  0  0  0  0  0  0  0
   14.2820    3.2930   27.5120 C   0  0  0  0  0  0  0  0  0  0  0  0
   15.2800    3.2770   28.6830 C   0  0  0  0  0  0  0  0  0  0  0  0
   14.5860    2.1450   26.5950 C   0  0  0  0  0  0  0  0  0  0  0  0
   10.4730    3.1330   27.5360 C   0  0  0  0  0  3  0  0  0  0  0  0
    8.6930    1.3350   27.6160 C   0  0  0  0  0  0  0  0  0  0  0  0
    8.1280    1.3550   26.1670 C   0  0  0  0  0  0  0  0  0  0  0  0
    6.8530    2.3160   26.0060 C   0  0  0  0  0  3  0  0  0  0  0  0
    6.4520    3.1220   26.8120 C   0  0  0  0  0  3  0  0  0  0  0  0
   12.1280   10.3900   25.5090 C   0  0  0  0  0  3  0  0  0  0  0  0
    4.9860    3.7210   26.1250 C   0  0  0  0  0  3  0  0  0  0  0  0
    5.8420    2.0960   24.7560 C   0  0  0  0  0  3  0  0  0  0  0  0
    9.0610    0.0560   28.3500 C   0  0  0  0  0  3  0  0  0  0  0  0
    9.9390    0.5360   29.5590 C   0  0  0  0  0  0  0  0  0  0  0  0
   11.6260   11.4920   24.6710 C   0  0  0  0  0  3  0  0  0  0  0  0
   10.6390   11.2410   23.5950 C   0  0  0  0  0  3  0  0  0  0  0  0
   10.1510    9.8520   23.3400 C   0  0  0  0  0  3  0  0  0  0  0  0
   10.6810    8.6840   24.2240 C   0  0  0  0  0  3  0  0  0  0  0  0
   11.1340    6.7570   25.1950 C   0  0  0  0  0  3  0  0  0  0  0  0
   13.7890   11.8990   27.8860 H   0  0  0  0  0  0  0  0  0  0  0  0
   12.0810    2.9250   26.0800 H   0  0  0  0  0  0  0  0  0  0  0  0
   12.7210    2.1570   28.4450 H   0  0  0  0  0  0  0  0  0  0  0  0
   12.7530    3.8660   28.9020 H   0  0  0  0  0  0  0  0  0  0  0  0
   14.3730    4.2110   26.9430 H   0  0  0  0  0  0  0  0  0  0  0  0
   15.2430    2.3120   29.1750 H   0  0  0  0  0  0  0  0  0  0  0  0
   15.0180    4.0530   29.3910 H   0  0  0  0  0  0  0  0  0  0  0  0
   16.2800    3.4530   28.3080 H   0  0  0  0  0  0  0  0  0  0  0  0
   15.6420    1.9110   26.6470 H   0  0  0  0  0  0  0  0  0  0  0  0
   14.0090    1.2790   26.8980 H   0  0  0  0  0  0  0  0  0  0  0  0
   14.3250    2.4150   25.5790 H   0  0  0  0  0  0  0  0  0  0  0  0
   13.7820   12.4380   26.2010 H   0  0  0  0  0  0  0  0  0  0  0  0
   10.4650    1.3210   26.4730 H   0  0  0  0  0  0  0  0  0  0  0  0
    8.0480    1.7370   28.3880 H   0  0  0  0  0  0  0  0  0  0  0  0
    8.9060    1.6970   25.4960 H   0  0  0  0  0  0  0  0  0  0  0  0
    7.8390    0.3480   25.8940 H   0  0  0  0  0  0  0  0  0  0  0  0
    7.0780    3.6580   27.5140 H   0  0  0  0  0  0  0  0  0  0  0  0
    4.2130    4.2530   26.6650 H   0  0  0  0  0  0  0  0  0  0  0  0
   12.2680   12.3600   27.1120 H   0  0  0  0  0  0  0  0  0  0  0  0
    7.3970    0.0630   29.3850 H   0  0  0  0  0  0  0  0  0  0  0  0
    9.4820    1.4180   29.9910 H   0  0  0  0  0  0  0  0  0  0  0  0
   10.9250    0.7920   29.1920 H   0  0  0  0  0  0  0  0  0  0  0  0
   10.4840   -1.1920   30.2200 H   0  0  0  0  0  0  0  0  0  0  0  0
   11.9830   12.5000   24.8430 H   0  0  0  0  0  0  0  0  0  0  0  0
   10.2720   12.0640   22.9950 H   0  0  0  0  0  0  0  0  0  0  0  0
    9.4370    9.6590   22.5480 H   0  0  0  0  0  0  0  0  0  0  0  0
   12.5510    7.6130   26.6920 H   0  0  0  0  0  0  0  0  0  0  0  0
   12.3150    5.5160   27.2950 H   0  0  0  0  0  0  0  0  0  0  0  0
   11.8380    4.8680   26.7010 N   0  0  0  0  0  0  0  0  0  0  0  0
    9.9420    1.8660   27.1290 N   0  0  0  0  0  0  0  0  0  0  0  0
    4.7410    3.0840   25.0280 N   0  0  0  0  0  2  0  0  0  0  0  0
   10.4040    7.3420   24.2230 N   0  0  0  0  0  2  0  0  0  0  0  0
   10.5560    4.5460   24.8590 O   0  0  0  0  0  1  0  0  0  0  0  0
   13.0450   10.5590   26.5320 O   0  0  0  0  0  0  0  0  0  0  0  0
    9.8720    3.8710   28.2660 O   0  0  0  0  0  1  0  0  0  0  0  0
    6.0640    1.3080   23.9190 O   0  0  0  0  0  1  0  0  0  0  0  0
    7.9080   -0.5290   28.8900 O   0  0  0  0  0  0  0  0  0  0  0  0
   10.0710   -0.4420   30.5640 O   0  0  0  0  0  0  0  0  0  0  0  0
  1 25  1  0
  1 36  1  0
  1 43  1  0
  1 58  1  0
  2  3  1  0
  2 24  1  0
  2 51  1  0
  3 15  1  0
  3 23  1  0
  4 24  1  0
  4 53  1  0
  4 57  1  0
  5  6  1  0
  5 10  1  0
  5 26  1  0
  5 53  1  0
  6  7  1  0
  6 27  1  0
  6 28  1  0
  7  8  1  0
  7  9  1  0
  7 29  1  0
  8 30  1  0
  8 31  1  0
  8 32  1  0
  9 33  1  0
  9 34  1  0
  9 35  1  0
 10 54  1  0
 10 59  1  0
 11 12  1  0
 11 18  1  0
 11 38  1  0
 11 54  1  0
 12 13  1  0
 12 39  1  0
 12 40  1  0
 13 14  1  0
 13 17  1  0
 14 16  1  0
 14 41  1  0
 15 20  1  0
 15 58  1  0
 16 42  1  0
 16 55  1  0
 17 55  1  0
 17 60  1  0
 18 19  1  0
 18 61  1  0
 19 45  1  0
 19 46  1  0
 19 62  1  0
 20 21  1  0
 20 48  1  0
 21 22  1  0
 21 49  1  0
 22 23  1  0
 22 50  1  0
 23 56  1  0
 24 56  1  0
 37 54  1  0
 44 61  1  0
 47 62  1  0
 52 53  1  0
M  END
$$$$
