9o6e_B_V2M_401
     RDKit          3D

 62 64  0  0  0  0  0  0  0  0999 V2000
  -23.2180  -24.2830   -4.4750 C   0  0  0  0  0  0  0  0  0  0  0  0
  -21.7820  -23.2350   -0.5200 C   0  0  0  0  0  3  0  0  0  0  0  0
  -21.9770  -22.4190   -1.5730 C   0  0  0  0  0  3  0  0  0  0  0  0
  -20.5380  -22.9700    1.7150 C   0  0  0  0  0  3  0  0  0  0  0  0
  -20.3590  -24.7250    3.3930 C   0  0  0  0  0  0  0  0  0  0  0  0
  -20.9790  -26.0820    3.7740 C   0  0  0  0  0  0  0  0  0  0  0  0
  -22.4140  -25.9020    4.1850 C   0  0  0  0  0  0  0  0  0  0  0  0
  -23.1330  -27.2230    4.0580 C   0  0  0  0  0  0  0  0  0  0  0  0
  -22.5140  -25.4760    5.5960 C   0  0  0  0  0  0  0  0  0  0  0  0
  -18.8540  -24.9480    3.3520 C   0  0  0  0  0  3  0  0  0  0  0  0
  -16.7710  -24.7810    4.7250 C   0  0  0  0  0  0  0  0  0  0  0  0
  -16.5300  -23.2430    4.8780 C   0  0  0  0  0  0  0  0  0  0  0  0
  -15.7040  -22.5810    3.6950 C   0  0  0  0  0  3  0  0  0  0  0  0
  -15.3600  -23.1110    2.6840 C   0  0  0  0  0  3  0  0  0  0  0  0
  -22.7490  -22.6220   -2.9260 C   0  0  0  0  0  3  0  0  0  0  0  0
  -14.3410  -21.9430    1.9350 C   0  0  0  0  0  3  0  0  0  0  0  0
  -15.0050  -21.1470    3.9760 C   0  0  0  0  0  3  0  0  0  0  0  0
  -16.6300  -25.6390    5.9440 C   0  0  0  0  0  3  0  0  0  0  0  0
  -17.4370  -26.9220    5.5920 C   0  0  0  0  0  0  0  0  0  0  0  0
  -22.7960  -21.5080   -3.9060 C   0  0  0  0  0  3  0  0  0  0  0  0
  -22.1010  -20.2270   -3.6460 C   0  0  0  0  0  3  0  0  0  0  0  0
  -21.3790  -20.0420   -2.3660 C   0  0  0  0  0  3  0  0  0  0  0  0
  -21.3260  -21.1970   -1.3220 C   0  0  0  0  0  3  0  0  0  0  0  0
  -21.0280  -22.5020    0.3980 C   0  0  0  0  0  3  0  0  0  0  0  0
  -23.3940  -25.3510   -4.5050 H   0  0  0  0  0  0  0  0  0  0  0  0
  -20.6030  -23.9490    4.1080 H   0  0  0  0  0  0  0  0  0  0  0  0
  -20.4230  -26.5100    4.5990 H   0  0  0  0  0  0  0  0  0  0  0  0
  -20.9320  -26.7480    2.9220 H   0  0  0  0  0  0  0  0  0  0  0  0
  -22.8660  -25.1480    3.5530 H   0  0  0  0  0  0  0  0  0  0  0  0
  -22.6500  -27.9590    4.6890 H   0  0  0  0  0  0  0  0  0  0  0  0
  -23.1020  -27.5540    3.0280 H   0  0  0  0  0  0  0  0  0  0  0  0
  -24.1640  -27.1030    4.3680 H   0  0  0  0  0  0  0  0  0  0  0  0
  -22.8290  -24.4400    5.6390 H   0  0  0  0  0  0  0  0  0  0  0  0
  -23.2380  -26.0950    6.1110 H   0  0  0  0  0  0  0  0  0  0  0  0
  -21.5470  -25.5780    6.0740 H   0  0  0  0  0  0  0  0  0  0  0  0
  -23.9180  -23.7830   -5.1340 H   0  0  0  0  0  0  0  0  0  0  0  0
  -18.7210  -24.2600    5.2830 H   0  0  0  0  0  0  0  0  0  0  0  0
  -16.1210  -25.3130    4.0420 H   0  0  0  0  0  0  0  0  0  0  0  0
  -17.4950  -22.7530    4.9320 H   0  0  0  0  0  0  0  0  0  0  0  0
  -15.9920  -23.0740    5.8020 H   0  0  0  0  0  0  0  0  0  0  0  0
  -15.9110  -23.8890    2.1700 H   0  0  0  0  0  0  0  0  0  0  0  0
  -13.6620  -22.1450    1.1160 H   0  0  0  0  0  0  0  0  0  0  0  0
  -22.2060  -24.0740   -4.7990 H   0  0  0  0  0  0  0  0  0  0  0  0
  -14.9850  -26.4020    5.2970 H   0  0  0  0  0  0  0  0  0  0  0  0
  -17.2180  -27.2010    4.5690 H   0  0  0  0  0  0  0  0  0  0  0  0
  -18.4940  -26.7030    5.6800 H   0  0  0  0  0  0  0  0  0  0  0  0
  -17.5640  -27.9590    7.2440 H   0  0  0  0  0  0  0  0  0  0  0  0
  -23.3480  -21.6350   -4.8290 H   0  0  0  0  0  0  0  0  0  0  0  0
  -22.1210  -19.4330   -4.3830 H   0  0  0  0  0  0  0  0  0  0  0  0
  -20.8850  -19.1010   -2.1550 H   0  0  0  0  0  0  0  0  0  0  0  0
  -22.1370  -24.2520   -0.4080 H   0  0  0  0  0  0  0  0  0  0  0  0
  -21.4290  -24.8860    1.5500 H   0  0  0  0  0  0  0  0  0  0  0  0
  -20.8670  -24.2870    2.1220 N   0  0  0  0  0  0  0  0  0  0  0  0
  -18.1810  -24.6270    4.5240 N   0  0  0  0  0  0  0  0  0  0  0  0
  -14.1630  -20.9460    2.7290 N   0  0  0  0  0  2  0  0  0  0  0  0
  -20.7490  -21.2860   -0.1140 N   0  0  0  0  0  2  0  0  0  0  0  0
  -19.8860  -22.3060    2.4360 O   0  0  0  0  0  1  0  0  0  0  0  0
  -23.3930  -23.8200   -3.1740 O   0  0  0  0  0  0  0  0  0  0  0  0
  -18.2690  -25.3620    2.4460 O   0  0  0  0  0  1  0  0  0  0  0  0
  -15.1540  -20.4860    4.9350 O   0  0  0  0  0  1  0  0  0  0  0  0
  -15.2780  -25.9190    6.0590 O   0  0  0  0  0  0  0  0  0  0  0  0
  -17.1340  -28.0010    6.4240 O   0  0  0  0  0  0  0  0  0  0  0  0
  1 25  1  0
  1 36  1  0
  1 43  1  0
  1 58  1  0
  2  3  1  0
  2 24  1  0
  2 51  1  0
  3 15  1  0
  3 23  1  0
  4 24  1  0
  4 53  1  0
  4 57  1  0
  5  6  1  0
  5 10  1  0
  5 26  1  0
  5 53  1  0
  6  7  1  0
  6 27  1  0
  6 28  1  0
  7  8  1  0
  7  9  1  0
  7 29  1  0
  8 30  1  0
  8 31  1  0
  8 32  1  0
  9 33  1  0
  9 34  1  0
  9 35  1  0
 10 54  1  0
 10 59  1  0
 11 12  1  0
 11 18  1  0
 11 38  1  0
 11 54  1  0
 12 13  1  0
 12 39  1  0
 12 40  1  0
 13 14  1  0
 13 17  1  0
 14 16  1  0
 14 41  1  0
 15 20  1  0
 15 58  1  0
 16 42  1  0
 16 55  1  0
 17 55  1  0
 17 60  1  0
 18 19  1  0
 18 61  1  0
 19 45  1  0
 19 46  1  0
 19 62  1  0
 20 21  1  0
 20 48  1  0
 21 22  1  0
 21 49  1  0
 22 23  1  0
 22 50  1  0
 23 56  1  0
 24 56  1  0
 37 54  1  0
 44 61  1  0
 47 62  1  0
 52 53  1  0
M  END
$$$$
