9o6e_A_V2M_404
     RDKit          3D

 62 64  0  0  0  0  0  0  0  0999 V2000
   13.2940   11.9950   27.2740 C   0  0  0  0  0  0  0  0  0  0  0  0
   11.8740    7.8500   26.1500 C   0  0  0  0  0  3  0  0  0  0  0  0
   11.6270    9.0310   25.5350 C   0  0  0  0  0  3  0  0  0  0  0  0
   11.1340    5.3920   25.7250 C   0  0  0  0  0  3  0  0  0  0  0  0
   11.7730    3.5570   27.1290 C   0  0  0  0  0  0  0  0  0  0  0  0
   12.7840    3.1840   28.1910 C   0  0  0  0  0  0  0  0  0  0  0  0
   14.2100    3.3470   27.7320 C   0  0  0  0  0  0  0  0  0  0  0  0
   15.1490    3.1830   28.9340 C   0  0  0  0  0  0  0  0  0  0  0  0
   14.5330    2.2590   26.7360 C   0  0  0  0  0  0  0  0  0  0  0  0
   10.3980    3.1990   27.7070 C   0  0  0  0  0  3  0  0  0  0  0  0
    8.6760    1.3780   27.7920 C   0  0  0  0  0  0  0  0  0  0  0  0
    8.0420    1.2700   26.3910 C   0  0  0  0  0  0  0  0  0  0  0  0
    6.8930    2.3240   26.1300 C   0  0  0  0  0  3  0  0  0  0  0  0
    6.5310    3.1960   26.8450 C   0  0  0  0  0  3  0  0  0  0  0  0
   12.1210   10.4800   25.8610 C   0  0  0  0  0  3  0  0  0  0  0  0
    5.1370    3.8300   26.0710 C   0  0  0  0  0  3  0  0  0  0  0  0
    5.9260    2.0400   24.8890 C   0  0  0  0  0  3  0  0  0  0  0  0
    9.0360    0.0560   28.5170 C   0  0  0  0  0  3  0  0  0  0  0  0
   10.0450    0.4840   29.6430 C   0  0  0  0  0  0  0  0  0  0  0  0
   11.6360   11.5670   25.0240 C   0  0  0  0  0  3  0  0  0  0  0  0
   10.7270   11.3320   23.9110 C   0  0  0  0  0  3  0  0  0  0  0  0
   10.2470    9.9550   23.6020 C   0  0  0  0  0  3  0  0  0  0  0  0
   10.7410    8.7900   24.4750 C   0  0  0  0  0  3  0  0  0  0  0  0
   11.1620    6.8650   25.4330 C   0  0  0  0  0  3  0  0  0  0  0  0
   13.7910   11.9950   28.2360 H   0  0  0  0  0  0  0  0  0  0  0  0
   11.9970    3.0410   26.2040 H   0  0  0  0  0  0  0  0  0  0  0  0
   12.6270    2.1490   28.4670 H   0  0  0  0  0  0  0  0  0  0  0  0
   12.6250    3.8170   29.0550 H   0  0  0  0  0  0  0  0  0  0  0  0
   14.3490    4.3220   27.2800 H   0  0  0  0  0  0  0  0  0  0  0  0
   15.0840    2.1680   29.3070 H   0  0  0  0  0  0  0  0  0  0  0  0
   14.8600    3.8740   29.7150 H   0  0  0  0  0  0  0  0  0  0  0  0
   16.1670    3.3890   28.6280 H   0  0  0  0  0  0  0  0  0  0  0  0
   13.9140    1.3920   26.9340 H   0  0  0  0  0  0  0  0  0  0  0  0
   14.3410    2.6180   25.7330 H   0  0  0  0  0  0  0  0  0  0  0  0
   15.5770    1.9850   26.8270 H   0  0  0  0  0  0  0  0  0  0  0  0
   13.9420   12.4460   26.5320 H   0  0  0  0  0  0  0  0  0  0  0  0
   10.4410    1.4150   26.6180 H   0  0  0  0  0  0  0  0  0  0  0  0
    8.0930    1.8550   28.5700 H   0  0  0  0  0  0  0  0  0  0  0  0
    8.8190    1.4190   25.6510 H   0  0  0  0  0  0  0  0  0  0  0  0
    7.6280    0.2750   26.2780 H   0  0  0  0  0  0  0  0  0  0  0  0
    7.1700    3.7430   27.5270 H   0  0  0  0  0  0  0  0  0  0  0  0
    4.3990    4.4700   26.5400 H   0  0  0  0  0  0  0  0  0  0  0  0
   12.3740   12.5620   27.3430 H   0  0  0  0  0  0  0  0  0  0  0  0
    7.5230    0.2660   29.7580 H   0  0  0  0  0  0  0  0  0  0  0  0
    9.6680    1.3790   30.1220 H   0  0  0  0  0  0  0  0  0  0  0  0
   11.0000    0.7060   29.1830 H   0  0  0  0  0  0  0  0  0  0  0  0
    9.3780   -0.8990   30.7760 H   0  0  0  0  0  0  0  0  0  0  0  0
   11.9590   12.5790   25.2350 H   0  0  0  0  0  0  0  0  0  0  0  0
   10.3980   12.1650   23.3020 H   0  0  0  0  0  0  0  0  0  0  0  0
    9.5630    9.7790   22.7810 H   0  0  0  0  0  0  0  0  0  0  0  0
   12.4970    7.6920   27.0220 H   0  0  0  0  0  0  0  0  0  0  0  0
   12.2120    5.5940   27.5330 H   0  0  0  0  0  0  0  0  0  0  0  0
   11.7770    4.9540   26.8980 N   0  0  0  0  0  0  0  0  0  0  0  0
    9.9110    1.9380   27.2870 N   0  0  0  0  0  0  0  0  0  0  0  0
    4.8550    3.1080   25.0290 N   0  0  0  0  0  2  0  0  0  0  0  0
   10.4930    7.4530   24.4250 N   0  0  0  0  0  2  0  0  0  0  0  0
   10.5750    4.6310   25.0220 O   0  0  0  0  0  1  0  0  0  0  0  0
   13.0060   10.6900   26.9030 O   0  0  0  0  0  0  0  0  0  0  0  0
    9.7600    3.9250   28.4530 O   0  0  0  0  0  1  0  0  0  0  0  0
    6.1230    1.1820   24.1140 O   0  0  0  0  0  1  0  0  0  0  0  0
    7.8100   -0.3740   29.1160 O   0  0  0  0  0  0  0  0  0  0  0  0
   10.2420   -0.5030   30.6290 O   0  0  0  0  0  0  0  0  0  0  0  0
  1 25  1  0
  1 36  1  0
  1 43  1  0
  1 58  1  0
  2  3  1  0
  2 24  1  0
  2 51  1  0
  3 15  1  0
  3 23  1  0
  4 24  1  0
  4 53  1  0
  4 57  1  0
  5  6  1  0
  5 10  1  0
  5 26  1  0
  5 53  1  0
  6  7  1  0
  6 27  1  0
  6 28  1  0
  7  8  1  0
  7  9  1  0
  7 29  1  0
  8 30  1  0
  8 31  1  0
  8 32  1  0
  9 33  1  0
  9 34  1  0
  9 35  1  0
 10 54  1  0
 10 59  1  0
 11 12  1  0
 11 18  1  0
 11 38  1  0
 11 54  1  0
 12 13  1  0
 12 39  1  0
 12 40  1  0
 13 14  1  0
 13 17  1  0
 14 16  1  0
 14 41  1  0
 15 20  1  0
 15 58  1  0
 16 42  1  0
 16 55  1  0
 17 55  1  0
 17 60  1  0
 18 19  1  0
 18 61  1  0
 19 45  1  0
 19 46  1  0
 19 62  1  0
 20 21  1  0
 20 48  1  0
 21 22  1  0
 21 49  1  0
 22 23  1  0
 22 50  1  0
 23 56  1  0
 24 56  1  0
 37 54  1  0
 44 61  1  0
 47 62  1  0
 52 53  1  0
M  END
$$$$
