9o6f_A_V2M_401
     RDKit          3D

 62 64  0  0  0  0  0  0  0  0999 V2000
   12.9690   11.7830   27.3590 C   0  0  0  0  0  0  0  0  0  0  0  0
   12.0050    7.7400   25.9570 C   0  0  0  0  0  3  0  0  0  0  0  0
   11.6800    8.9090   25.3660 C   0  0  0  0  0  3  0  0  0  0  0  0
   11.3020    5.2680   25.6540 C   0  0  0  0  0  3  0  0  0  0  0  0
   12.0660    3.4290   27.0820 C   0  0  0  0  0  0  0  0  0  0  0  0
   13.0660    3.1210   28.1680 C   0  0  0  0  0  0  0  0  0  0  0  0
   14.3690    2.5060   27.6910 C   0  0  0  0  0  0  0  0  0  0  0  0
   14.7160    2.7810   26.2680 C   0  0  0  0  0  0  0  0  0  0  0  0
   15.4910    3.1130   28.5490 C   0  0  0  0  0  0  0  0  0  0  0  0
   10.6850    3.0750   27.6310 C   0  0  0  0  0  3  0  0  0  0  0  0
    8.9180    1.2960   27.7220 C   0  0  0  0  0  0  0  0  0  0  0  0
    8.1620    1.1360   26.4160 C   0  0  0  0  0  0  0  0  0  0  0  0
    6.9570    2.1970   26.1790 C   0  0  0  0  0  3  0  0  0  0  0  0
    6.5970    3.0670   26.9310 C   0  0  0  0  0  3  0  0  0  0  0  0
   12.1710   10.3760   25.6320 C   0  0  0  0  0  3  0  0  0  0  0  0
    5.2590    3.7920   26.1590 C   0  0  0  0  0  3  0  0  0  0  0  0
    6.0500    2.0510   24.8730 C   0  0  0  0  0  3  0  0  0  0  0  0
    9.2310    0.0090   28.4360 C   0  0  0  0  0  3  0  0  0  0  0  0
   10.2380    0.3720   29.5380 C   0  0  0  0  0  0  0  0  0  0  0  0
   11.6250   11.4750   24.8100 C   0  0  0  0  0  3  0  0  0  0  0  0
   10.6370   11.2100   23.7520 C   0  0  0  0  0  3  0  0  0  0  0  0
   10.1730    9.8090   23.5070 C   0  0  0  0  0  3  0  0  0  0  0  0
   10.7550    8.6550   24.3790 C   0  0  0  0  0  3  0  0  0  0  0  0
   11.2740    6.7430   25.3240 C   0  0  0  0  0  3  0  0  0  0  0  0
   13.6080   12.5430   26.9270 H   0  0  0  0  0  0  0  0  0  0  0  0
   12.3240    2.8720   26.1900 H   0  0  0  0  0  0  0  0  0  0  0  0
   12.6050    2.4310   28.8640 H   0  0  0  0  0  0  0  0  0  0  0  0
   13.3010    4.0470   28.6800 H   0  0  0  0  0  0  0  0  0  0  0  0
   14.2700    1.4300   27.7760 H   0  0  0  0  0  0  0  0  0  0  0  0
   15.7650    2.5660   26.1040 H   0  0  0  0  0  0  0  0  0  0  0  0
   14.5220    3.8230   26.0440 H   0  0  0  0  0  0  0  0  0  0  0  0
   14.1140    2.1550   25.6220 H   0  0  0  0  0  0  0  0  0  0  0  0
   15.2400    3.0100   29.5970 H   0  0  0  0  0  0  0  0  0  0  0  0
   16.4210    2.5950   28.3480 H   0  0  0  0  0  0  0  0  0  0  0  0
   15.6030    4.1630   28.3060 H   0  0  0  0  0  0  0  0  0  0  0  0
   11.9380   12.1110   27.3190 H   0  0  0  0  0  0  0  0  0  0  0  0
   10.7470    1.2090   26.6730 H   0  0  0  0  0  0  0  0  0  0  0  0
    8.3840    1.8830   28.4590 H   0  0  0  0  0  0  0  0  0  0  0  0
    8.8690    1.2450   25.6030 H   0  0  0  0  0  0  0  0  0  0  0  0
    7.7410    0.1390   26.3920 H   0  0  0  0  0  0  0  0  0  0  0  0
    7.2380    3.5590   27.6520 H   0  0  0  0  0  0  0  0  0  0  0  0
    4.5070    4.4020   26.6440 H   0  0  0  0  0  0  0  0  0  0  0  0
   13.2550   11.6150   28.3910 H   0  0  0  0  0  0  0  0  0  0  0  0
    7.7040    0.1320   29.5880 H   0  0  0  0  0  0  0  0  0  0  0  0
    9.8630    1.2260   30.0880 H   0  0  0  0  0  0  0  0  0  0  0  0
   11.1820    0.6340   29.0780 H   0  0  0  0  0  0  0  0  0  0  0  0
    9.5940   -1.0310   30.6820 H   0  0  0  0  0  0  0  0  0  0  0  0
   11.9580   12.4900   24.9880 H   0  0  0  0  0  0  0  0  0  0  0  0
   10.2470   12.0250   23.1550 H   0  0  0  0  0  0  0  0  0  0  0  0
    9.4440    9.5990   22.7350 H   0  0  0  0  0  0  0  0  0  0  0  0
   12.7050    7.6050   26.7720 H   0  0  0  0  0  0  0  0  0  0  0  0
   12.5390    5.4710   27.3650 H   0  0  0  0  0  0  0  0  0  0  0  0
   12.0440    4.8200   26.7880 N   0  0  0  0  0  0  0  0  0  0  0  0
   10.1890    1.7900   27.2670 N   0  0  0  0  0  0  0  0  0  0  0  0
    5.0280    3.1650   25.0430 N   0  0  0  0  0  2  0  0  0  0  0  0
   10.5190    7.3070   24.3760 N   0  0  0  0  0  2  0  0  0  0  0  0
   10.7200    4.5050   24.9990 O   0  0  0  0  0  1  0  0  0  0  0  0
   13.1080   10.5910   26.6370 O   0  0  0  0  0  0  0  0  0  0  0  0
   10.0560    3.7970   28.3270 O   0  0  0  0  0  1  0  0  0  0  0  0
    6.2090    1.2730   24.0110 O   0  0  0  0  0  1  0  0  0  0  0  0
    8.0690   -0.5000   28.9900 O   0  0  0  0  0  0  0  0  0  0  0  0
   10.4450   -0.6850   30.4280 O   0  0  0  0  0  0  0  0  0  0  0  0
  1 25  1  0
  1 36  1  0
  1 43  1  0
  1 58  1  0
  2  3  1  0
  2 24  1  0
  2 51  1  0
  3 15  1  0
  3 23  1  0
  4 24  1  0
  4 53  1  0
  4 57  1  0
  5  6  1  0
  5 10  1  0
  5 26  1  0
  5 53  1  0
  6  7  1  0
  6 27  1  0
  6 28  1  0
  7  8  1  0
  7  9  1  0
  7 29  1  0
  8 30  1  0
  8 31  1  0
  8 32  1  0
  9 33  1  0
  9 34  1  0
  9 35  1  0
 10 54  1  0
 10 59  1  0
 11 12  1  0
 11 18  1  0
 11 38  1  0
 11 54  1  0
 12 13  1  0
 12 39  1  0
 12 40  1  0
 13 14  1  0
 13 17  1  0
 14 16  1  0
 14 41  1  0
 15 20  1  0
 15 58  1  0
 16 42  1  0
 16 55  1  0
 17 55  1  0
 17 60  1  0
 18 19  1  0
 18 61  1  0
 19 45  1  0
 19 46  1  0
 19 62  1  0
 20 21  1  0
 20 48  1  0
 21 22  1  0
 21 49  1  0
 22 23  1  0
 22 50  1  0
 23 56  1  0
 24 56  1  0
 37 54  1  0
 44 61  1  0
 47 62  1  0
 52 53  1  0
M  END
$$$$
