9o6p_B_V2M_401
     RDKit          3D

 67 69  0  0  0  0  0  0  0  0999 V2000
  -23.2750  -23.9890   -3.7000 C   0  0  0  0  0  0  0  0  0  0  0  0
  -22.0270  -22.8330   -0.4480 C   0  0  0  0  0  3  0  0  0  0  0  0
  -22.1830  -21.8850   -1.4970 C   0  0  0  0  0  3  0  0  0  0  0  0
  -20.5630  -22.8350    1.7070 C   0  0  0  0  0  3  0  0  0  0  0  0
  -20.3580  -25.0290    2.9680 C   0  0  0  0  0  0  0  0  0  0  0  0
  -21.1640  -24.7690    4.2620 C   0  0  0  0  0  0  0  0  0  0  0  0
  -22.5180  -25.5020    4.3770 C   0  0  0  0  0  0  0  0  0  0  0  0
  -23.1040  -25.3120    5.7860 C   0  0  0  0  0  0  0  0  0  0  0  0
  -22.4190  -26.9990    4.0660 C   0  0  0  0  0  0  0  0  0  0  0  0
  -18.8190  -24.9320    3.1700 C   0  0  0  0  0  3  0  0  0  0  0  0
  -16.9150  -24.2410    4.6070 C   0  0  0  0  0  0  0  0  0  0  0  0
  -16.4250  -22.7970    4.7790 C   0  0  0  0  0  0  0  0  0  0  0  0
  -16.0530  -22.1110    3.4580 C   0  0  0  0  0  0  0  0  0  0  0  0
  -15.0940  -22.8680    2.5140 C   0  0  0  0  0  0  0  0  0  0  0  0
  -22.9700  -21.8630   -2.6690 C   0  0  0  0  0  3  0  0  0  0  0  0
  -14.2730  -21.7680    1.8090 C   0  0  0  0  0  0  0  0  0  0  0  0
  -15.3430  -20.7690    3.6930 C   0  0  0  0  0  3  0  0  0  0  0  0
  -16.5860  -25.1900    5.8010 C   0  0  0  0  0  3  0  0  0  0  0  0
  -17.4310  -26.4860    5.6650 C   0  0  0  0  0  0  0  0  0  0  0  0
  -22.8950  -20.7620   -3.5090 C   0  0  0  0  0  3  0  0  0  0  0  0
  -22.0410  -19.6790   -3.1920 C   0  0  0  0  0  3  0  0  0  0  0  0
  -21.2560  -19.6650   -2.0530 C   0  0  0  0  0  3  0  0  0  0  0  0
  -21.3380  -20.7850   -1.2070 C   0  0  0  0  0  3  0  0  0  0  0  0
  -21.1290  -22.3010    0.4500 C   0  0  0  0  0  3  0  0  0  0  0  0
  -22.3300  -24.3090   -3.2650 H   0  0  0  0  0  0  0  0  0  0  0  0
  -20.5460  -26.0570    2.6470 H   0  0  0  0  0  0  0  0  0  0  0  0
  -20.5390  -25.0520    5.1190 H   0  0  0  0  0  0  0  0  0  0  0  0
  -21.3420  -23.6890    4.3450 H   0  0  0  0  0  0  0  0  0  0  0  0
  -23.1880  -25.0310    3.6490 H   0  0  0  0  0  0  0  0  0  0  0  0
  -22.3720  -25.5800    6.5530 H   0  0  0  0  0  0  0  0  0  0  0  0
  -23.9870  -25.9400    5.9300 H   0  0  0  0  0  0  0  0  0  0  0  0
  -23.3990  -24.2730    5.9500 H   0  0  0  0  0  0  0  0  0  0  0  0
  -22.4620  -27.1700    2.9860 H   0  0  0  0  0  0  0  0  0  0  0  0
  -21.4760  -27.4070    4.4430 H   0  0  0  0  0  0  0  0  0  0  0  0
  -23.2430  -27.5440    4.5350 H   0  0  0  0  0  0  0  0  0  0  0  0
  -23.1580  -23.5440   -4.6870 H   0  0  0  0  0  0  0  0  0  0  0  0
  -19.0020  -23.9710    4.9700 H   0  0  0  0  0  0  0  0  0  0  0  0
  -16.3870  -24.6360    3.7380 H   0  0  0  0  0  0  0  0  0  0  0  0
  -15.5620  -22.8100    5.4480 H   0  0  0  0  0  0  0  0  0  0  0  0
  -17.2100  -22.2310    5.2850 H   0  0  0  0  0  0  0  0  0  0  0  0
  -16.9740  -21.8670    2.9110 H   0  0  0  0  0  0  0  0  0  0  0  0
  -15.6450  -23.4610    1.7820 H   0  0  0  0  0  0  0  0  0  0  0  0
  -14.4370  -23.5380    3.0700 H   0  0  0  0  0  0  0  0  0  0  0  0
  -13.2320  -22.0770    1.6570 H   0  0  0  0  0  0  0  0  0  0  0  0
  -14.6990  -21.5090    0.8320 H   0  0  0  0  0  0  0  0  0  0  0  0
  -13.7710  -19.8380    2.7200 H   0  0  0  0  0  0  0  0  0  0  0  0
  -24.0370  -24.7680   -3.6750 H   0  0  0  0  0  0  0  0  0  0  0  0
  -14.6800  -24.8210    6.1380 H   0  0  0  0  0  0  0  0  0  0  0  0
  -17.3420  -26.8330    4.6280 H   0  0  0  0  0  0  0  0  0  0  0  0
  -18.4790  -26.2200    5.8480 H   0  0  0  0  0  0  0  0  0  0  0  0
  -16.0620  -27.4800    6.6120 H   0  0  0  0  0  0  0  0  0  0  0  0
  -23.4830  -20.7130   -4.4140 H   0  0  0  0  0  0  0  0  0  0  0  0
  -22.0080  -18.8350   -3.8710 H   0  0  0  0  0  0  0  0  0  0  0  0
  -20.6070  -18.8280   -1.8250 H   0  0  0  0  0  0  0  0  0  0  0  0
  -20.0190  -20.5130    0.4690 H   0  0  0  0  0  0  0  0  0  0  0  0
  -22.5230  -23.7870   -0.3790 H   0  0  0  0  0  0  0  0  0  0  0  0
  -21.5530  -24.5740    1.3510 H   0  0  0  0  0  0  0  0  0  0  0  0
  -20.7760  -24.1730    1.8620 N   0  0  0  0  0  0  0  0  0  0  0  0
  -18.3450  -24.3490    4.3030 N   0  0  0  0  0  0  0  0  0  0  0  0
  -14.3680  -20.6520    2.7450 N   0  0  0  0  0  0  0  0  0  0  0  0
  -20.7000  -21.0700   -0.0240 N   0  0  0  0  0  0  0  0  0  0  0  0
  -19.9720  -22.1130    2.5080 O   0  0  0  0  0  1  0  0  0  0  0  0
  -23.7530  -22.9570   -2.8670 O   0  0  0  0  0  0  0  0  0  0  0  0
  -18.0730  -25.4030    2.3190 O   0  0  0  0  0  1  0  0  0  0  0  0
  -15.5940  -19.9580    4.5650 O   0  0  0  0  0  1  0  0  0  0  0  0
  -15.2260  -25.5230    5.7030 O   0  0  0  0  0  0  0  0  0  0  0  0
  -17.0260  -27.5170    6.5610 O   0  0  0  0  0  0  0  0  0  0  0  0
  1 25  1  0
  1 36  1  0
  1 47  1  0
  1 63  1  0
  2  3  1  0
  2 24  1  0
  2 56  1  0
  3 15  1  0
  3 23  1  0
  4 24  1  0
  4 58  1  0
  4 62  1  0
  5  6  1  0
  5 10  1  0
  5 26  1  0
  5 58  1  0
  6  7  1  0
  6 27  1  0
  6 28  1  0
  7  8  1  0
  7  9  1  0
  7 29  1  0
  8 30  1  0
  8 31  1  0
  8 32  1  0
  9 33  1  0
  9 34  1  0
  9 35  1  0
 10 59  1  0
 10 64  1  0
 11 12  1  0
 11 18  1  0
 11 38  1  0
 11 59  1  0
 12 13  1  0
 12 39  1  0
 12 40  1  0
 13 14  1  0
 13 17  1  0
 13 41  1  0
 14 16  1  0
 14 42  1  0
 14 43  1  0
 15 20  1  0
 15 63  1  0
 16 44  1  0
 16 45  1  0
 16 60  1  0
 17 60  1  0
 17 65  1  0
 18 19  1  0
 18 66  1  0
 19 49  1  0
 19 50  1  0
 19 67  1  0
 20 21  1  0
 20 52  1  0
 21 22  1  0
 21 53  1  0
 22 23  1  0
 22 54  1  0
 23 61  1  0
 24 61  1  0
 37 59  1  0
 46 60  1  0
 48 66  1  0
 51 67  1  0
 55 61  1  0
 57 58  1  0
M  END
$$$$
