9o6q_B_V2M_401
     RDKit          3D

 67 69  0  0  0  0  0  0  0  0999 V2000
  -22.8240  -24.1790   -3.6010 C   0  0  0  0  0  0  0  0  0  0  0  0
  -21.7780  -22.8180   -0.5360 C   0  0  0  0  0  3  0  0  0  0  0  0
  -21.9770  -21.9060   -1.6160 C   0  0  0  0  0  3  0  0  0  0  0  0
  -20.3070  -22.5970    1.6320 C   0  0  0  0  0  3  0  0  0  0  0  0
  -20.3600  -24.2210    3.5080 C   0  0  0  0  0  0  0  0  0  0  0  0
  -21.0090  -25.5810    3.8840 C   0  0  0  0  0  0  0  0  0  0  0  0
  -22.5220  -25.5700    4.1520 C   0  0  0  0  0  0  0  0  0  0  0  0
  -23.0520  -27.0050    4.0280 C   0  0  0  0  0  0  0  0  0  0  0  0
  -22.8860  -24.9710    5.5130 C   0  0  0  0  0  0  0  0  0  0  0  0
  -18.8330  -24.4790    3.4380 C   0  0  0  0  0  3  0  0  0  0  0  0
  -16.7030  -24.3550    4.7330 C   0  0  0  0  0  0  0  0  0  0  0  0
  -15.9660  -23.0210    4.9260 C   0  0  0  0  0  0  0  0  0  0  0  0
  -15.6790  -22.3060    3.6030 C   0  0  0  0  0  0  0  0  0  0  0  0
  -14.6250  -22.9550    2.6810 C   0  0  0  0  0  0  0  0  0  0  0  0
  -22.7450  -21.9480   -2.8000 C   0  0  0  0  0  3  0  0  0  0  0  0
  -14.0220  -21.7690    1.9000 C   0  0  0  0  0  0  0  0  0  0  0  0
  -15.1230  -20.8910    3.8260 C   0  0  0  0  0  3  0  0  0  0  0  0
  -16.4330  -25.4350    5.8250 C   0  0  0  0  0  3  0  0  0  0  0  0
  -17.0310  -26.7960    5.3760 C   0  0  0  0  0  0  0  0  0  0  0  0
  -22.7110  -20.8600   -3.6590 C   0  0  0  0  0  3  0  0  0  0  0  0
  -21.9210  -19.7260   -3.3530 C   0  0  0  0  0  3  0  0  0  0  0  0
  -21.1560  -19.6450   -2.2070 C   0  0  0  0  0  3  0  0  0  0  0  0
  -21.1980  -20.7510   -1.3460 C   0  0  0  0  0  3  0  0  0  0  0  0
  -20.9180  -22.1980    0.3500 C   0  0  0  0  0  3  0  0  0  0  0  0
  -22.4290  -23.8080   -4.5450 H   0  0  0  0  0  0  0  0  0  0  0  0
  -20.5900  -23.4290    4.2250 H   0  0  0  0  0  0  0  0  0  0  0  0
  -20.5010  -25.9680    4.7770 H   0  0  0  0  0  0  0  0  0  0  0  0
  -20.8050  -26.2930    3.0730 H   0  0  0  0  0  0  0  0  0  0  0  0
  -22.9960  -24.9490    3.3840 H   0  0  0  0  0  0  0  0  0  0  0  0
  -22.4490  -27.6970    4.6210 H   0  0  0  0  0  0  0  0  0  0  0  0
  -24.0850  -27.0720    4.3800 H   0  0  0  0  0  0  0  0  0  0  0  0
  -23.0280  -27.3430    2.9890 H   0  0  0  0  0  0  0  0  0  0  0  0
  -22.0240  -24.4560    5.9480 H   0  0  0  0  0  0  0  0  0  0  0  0
  -23.2040  -25.7570    6.2050 H   0  0  0  0  0  0  0  0  0  0  0  0
  -23.7020  -24.2510    5.4090 H   0  0  0  0  0  0  0  0  0  0  0  0
  -23.5920  -24.9400   -3.7340 H   0  0  0  0  0  0  0  0  0  0  0  0
  -18.6640  -23.8050    5.3570 H   0  0  0  0  0  0  0  0  0  0  0  0
  -16.3290  -24.7910    3.8050 H   0  0  0  0  0  0  0  0  0  0  0  0
  -15.0330  -23.2190    5.4580 H   0  0  0  0  0  0  0  0  0  0  0  0
  -16.5710  -22.3850    5.5750 H   0  0  0  0  0  0  0  0  0  0  0  0
  -16.6200  -22.1730    3.0540 H   0  0  0  0  0  0  0  0  0  0  0  0
  -15.0790  -23.6750    1.9990 H   0  0  0  0  0  0  0  0  0  0  0  0
  -13.8540  -23.4700    3.2560 H   0  0  0  0  0  0  0  0  0  0  0  0
  -12.9620  -21.9310    1.6670 H   0  0  0  0  0  0  0  0  0  0  0  0
  -14.5540  -21.5890    0.9580 H   0  0  0  0  0  0  0  0  0  0  0  0
  -13.7050  -19.7890    2.7930 H   0  0  0  0  0  0  0  0  0  0  0  0
  -22.0430  -24.4850   -2.9060 H   0  0  0  0  0  0  0  0  0  0  0  0
  -14.6280  -25.5970    5.0470 H   0  0  0  0  0  0  0  0  0  0  0  0
  -17.9910  -26.5960    4.8850 H   0  0  0  0  0  0  0  0  0  0  0  0
  -16.3510  -27.2350    4.6350 H   0  0  0  0  0  0  0  0  0  0  0  0
  -16.3390  -27.8500    6.8450 H   0  0  0  0  0  0  0  0  0  0  0  0
  -23.2860  -20.8590   -4.5740 H   0  0  0  0  0  0  0  0  0  0  0  0
  -21.9220  -18.8960   -4.0500 H   0  0  0  0  0  0  0  0  0  0  0  0
  -20.5550  -18.7710   -1.9860 H   0  0  0  0  0  0  0  0  0  0  0  0
  -19.9220  -20.3600    0.3300 H   0  0  0  0  0  0  0  0  0  0  0  0
  -22.2190  -23.7970   -0.4400 H   0  0  0  0  0  0  0  0  0  0  0  0
  -21.7860  -23.9690    2.0070 H   0  0  0  0  0  0  0  0  0  0  0  0
  -20.8420  -23.6900    2.2430 N   0  0  0  0  0  0  0  0  0  0  0  0
  -18.1500  -24.1770    4.5710 N   0  0  0  0  0  0  0  0  0  0  0  0
  -14.2040  -20.6640    2.8400 N   0  0  0  0  0  0  0  0  0  0  0  0
  -20.5630  -20.9700   -0.1540 N   0  0  0  0  0  0  0  0  0  0  0  0
  -19.3700  -21.9560    2.1000 O   0  0  0  0  0  1  0  0  0  0  0  0
  -23.4700  -23.0820   -2.9960 O   0  0  0  0  0  0  0  0  0  0  0  0
  -18.2880  -24.9390    2.4410 O   0  0  0  0  0  1  0  0  0  0  0  0
  -15.4330  -20.1170    4.7120 O   0  0  0  0  0  1  0  0  0  0  0  0
  -15.0390  -25.5710    5.9470 O   0  0  0  0  0  0  0  0  0  0  0  0
  -17.2120  -27.6890    6.4690 O   0  0  0  0  0  0  0  0  0  0  0  0
  1 25  1  0
  1 36  1  0
  1 47  1  0
  1 63  1  0
  2  3  1  0
  2 24  1  0
  2 56  1  0
  3 15  1  0
  3 23  1  0
  4 24  1  0
  4 58  1  0
  4 62  1  0
  5  6  1  0
  5 10  1  0
  5 26  1  0
  5 58  1  0
  6  7  1  0
  6 27  1  0
  6 28  1  0
  7  8  1  0
  7  9  1  0
  7 29  1  0
  8 30  1  0
  8 31  1  0
  8 32  1  0
  9 33  1  0
  9 34  1  0
  9 35  1  0
 10 59  1  0
 10 64  1  0
 11 12  1  0
 11 18  1  0
 11 38  1  0
 11 59  1  0
 12 13  1  0
 12 39  1  0
 12 40  1  0
 13 14  1  0
 13 17  1  0
 13 41  1  0
 14 16  1  0
 14 42  1  0
 14 43  1  0
 15 20  1  0
 15 63  1  0
 16 44  1  0
 16 45  1  0
 16 60  1  0
 17 60  1  0
 17 65  1  0
 18 19  1  0
 18 66  1  0
 19 49  1  0
 19 50  1  0
 19 67  1  0
 20 21  1  0
 20 52  1  0
 21 22  1  0
 21 53  1  0
 22 23  1  0
 22 54  1  0
 23 61  1  0
 24 61  1  0
 37 59  1  0
 46 60  1  0
 48 66  1  0
 51 67  1  0
 55 61  1  0
 57 58  1  0
M  END
$$$$
