9o74_A_V2M_401
     RDKit          3D

 67 69  0  0  0  0  0  0  0  0999 V2000
   12.7650   11.1710   27.3860 C   0  0  0  0  0  0  0  0  0  0  0  0
   11.9530    8.2290   25.8510 C   0  0  0  0  0  3  0  0  0  0  0  0
   11.5790    9.4150   25.1620 C   0  0  0  0  0  3  0  0  0  0  0  0
   11.0210    5.7630   25.6430 C   0  0  0  0  0  3  0  0  0  0  0  0
   11.9680    3.8160   26.8590 C   0  0  0  0  0  0  0  0  0  0  0  0
   13.0140    3.5340   27.9820 C   0  0  0  0  0  0  0  0  0  0  0  0
   14.4730    3.6230   27.5320 C   0  0  0  0  0  0  0  0  0  0  0  0
   14.8400    2.3620   26.7530 C   0  0  0  0  0  0  0  0  0  0  0  0
   15.3980    3.8290   28.7340 C   0  0  0  0  0  0  0  0  0  0  0  0
   10.5840    3.4510   27.5010 C   0  0  0  0  0  3  0  0  0  0  0  0
    8.8390    1.6280   27.5270 C   0  0  0  0  0  0  0  0  0  0  0  0
    7.9710    1.4390   26.2730 C   0  0  0  0  0  0  0  0  0  0  0  0
    6.6390    2.1460   26.3140 C   0  0  0  0  0  0  0  0  0  0  0  0
    6.5150    3.5920   26.8020 C   0  0  0  0  0  0  0  0  0  0  0  0
   12.0080   10.7700   25.2030 C   0  0  0  0  0  3  0  0  0  0  0  0
    5.1110    4.0140   26.3060 C   0  0  0  0  0  0  0  0  0  0  0  0
    5.9620    2.2740   24.9210 C   0  0  0  0  0  3  0  0  0  0  0  0
    9.0980    0.3820   28.4220 C   0  0  0  0  0  3  0  0  0  0  0  0
    9.9360    0.8350   29.6530 C   0  0  0  0  0  0  0  0  0  0  0  0
   11.4110   11.6960   24.3640 C   0  0  0  0  0  3  0  0  0  0  0  0
   10.3640   11.2990   23.4830 C   0  0  0  0  0  3  0  0  0  0  0  0
    9.9180    9.9910   23.4120 C   0  0  0  0  0  3  0  0  0  0  0  0
   10.5410    9.0600   24.2590 C   0  0  0  0  0  3  0  0  0  0  0  0
   11.1970    7.1900   25.2980 C   0  0  0  0  0  3  0  0  0  0  0  0
   12.0620   11.9950   27.4990 H   0  0  0  0  0  0  0  0  0  0  0  0
   12.1460    3.2550   25.9390 H   0  0  0  0  0  0  0  0  0  0  0  0
   12.8490    4.2460   28.8020 H   0  0  0  0  0  0  0  0  0  0  0  0
   12.8280    2.5330   28.3930 H   0  0  0  0  0  0  0  0  0  0  0  0
   14.5910    4.4700   26.8470 H   0  0  0  0  0  0  0  0  0  0  0  0
   13.9570    1.7430   26.5730 H   0  0  0  0  0  0  0  0  0  0  0  0
   15.5670    1.7600   27.3040 H   0  0  0  0  0  0  0  0  0  0  0  0
   15.2770    2.6140   25.7840 H   0  0  0  0  0  0  0  0  0  0  0  0
   16.4440    3.7160   28.4360 H   0  0  0  0  0  0  0  0  0  0  0  0
   15.1800    3.0940   29.5150 H   0  0  0  0  0  0  0  0  0  0  0  0
   15.2640    4.8300   29.1540 H   0  0  0  0  0  0  0  0  0  0  0  0
   13.7260   11.3670   27.8580 H   0  0  0  0  0  0  0  0  0  0  0  0
   10.6820    1.7080   26.4500 H   0  0  0  0  0  0  0  0  0  0  0  0
    8.3160    2.2760   28.2320 H   0  0  0  0  0  0  0  0  0  0  0  0
    8.5470    1.7900   25.4140 H   0  0  0  0  0  0  0  0  0  0  0  0
    7.8150    0.3680   26.1340 H   0  0  0  0  0  0  0  0  0  0  0  0
    6.0200    1.5000   26.9500 H   0  0  0  0  0  0  0  0  0  0  0  0
    7.2880    4.2320   26.3740 H   0  0  0  0  0  0  0  0  0  0  0  0
    6.5810    3.6600   27.8890 H   0  0  0  0  0  0  0  0  0  0  0  0
    5.0110    5.1030   26.2100 H   0  0  0  0  0  0  0  0  0  0  0  0
    4.3100    3.6540   26.9630 H   0  0  0  0  0  0  0  0  0  0  0  0
    4.5380    3.6120   24.2200 H   0  0  0  0  0  0  0  0  0  0  0  0
   12.3400   10.2100   27.6740 H   0  0  0  0  0  0  0  0  0  0  0  0
    7.2570   -0.2350   28.1110 H   0  0  0  0  0  0  0  0  0  0  0  0
    9.3350    1.5490   30.2300 H   0  0  0  0  0  0  0  0  0  0  0  0
   10.8290    1.3560   29.2850 H   0  0  0  0  0  0  0  0  0  0  0  0
   10.5320    0.0570   31.3470 H   0  0  0  0  0  0  0  0  0  0  0  0
   11.7270   12.7300   24.3640 H   0  0  0  0  0  0  0  0  0  0  0  0
    9.9080   12.0530   22.8510 H   0  0  0  0  0  0  0  0  0  0  0  0
    9.1250    9.7010   22.7340 H   0  0  0  0  0  0  0  0  0  0  0  0
    9.5880    7.1570   23.9880 H   0  0  0  0  0  0  0  0  0  0  0  0
   12.6790    8.1550   26.6450 H   0  0  0  0  0  0  0  0  0  0  0  0
   12.8900    5.6210   26.4560 H   0  0  0  0  0  0  0  0  0  0  0  0
   11.9740    5.1910   26.4240 N   0  0  0  0  0  0  0  0  0  0  0  0
   10.1170    2.2390   27.0970 N   0  0  0  0  0  0  0  0  0  0  0  0
    5.1090    3.3400   25.0060 N   0  0  0  0  0  0  0  0  0  0  0  0
   10.3040    7.7190   24.4240 N   0  0  0  0  0  0  0  0  0  0  0  0
   10.0290    5.1740   25.2570 O   0  0  0  0  0  1  0  0  0  0  0  0
   13.0200   11.0800   26.0460 O   0  0  0  0  0  0  0  0  0  0  0  0
    9.9700    4.1730   28.2970 O   0  0  0  0  0  1  0  0  0  0  0  0
    6.1510    1.5800   23.9360 O   0  0  0  0  0  1  0  0  0  0  0  0
    7.8940   -0.1710   28.8780 O   0  0  0  0  0  0  0  0  0  0  0  0
   10.3090   -0.2840   30.4720 O   0  0  0  0  0  0  0  0  0  0  0  0
  1 25  1  0
  1 36  1  0
  1 47  1  0
  1 63  1  0
  2  3  1  0
  2 24  1  0
  2 56  1  0
  3 15  1  0
  3 23  1  0
  4 24  1  0
  4 58  1  0
  4 62  1  0
  5  6  1  0
  5 10  1  0
  5 26  1  0
  5 58  1  0
  6  7  1  0
  6 27  1  0
  6 28  1  0
  7  8  1  0
  7  9  1  0
  7 29  1  0
  8 30  1  0
  8 31  1  0
  8 32  1  0
  9 33  1  0
  9 34  1  0
  9 35  1  0
 10 59  1  0
 10 64  1  0
 11 12  1  0
 11 18  1  0
 11 38  1  0
 11 59  1  0
 12 13  1  0
 12 39  1  0
 12 40  1  0
 13 14  1  0
 13 17  1  0
 13 41  1  0
 14 16  1  0
 14 42  1  0
 14 43  1  0
 15 20  1  0
 15 63  1  0
 16 44  1  0
 16 45  1  0
 16 60  1  0
 17 60  1  0
 17 65  1  0
 18 19  1  0
 18 66  1  0
 19 49  1  0
 19 50  1  0
 19 67  1  0
 20 21  1  0
 20 52  1  0
 21 22  1  0
 21 53  1  0
 22 23  1  0
 22 54  1  0
 23 61  1  0
 24 61  1  0
 37 59  1  0
 46 60  1  0
 48 66  1  0
 51 67  1  0
 55 61  1  0
 57 58  1  0
M  END
$$$$
