9o74_B_V2M_401
     RDKit          3D

 67 69  0  0  0  0  0  0  0  0999 V2000
  -22.9390  -23.9710   -4.0060 C   0  0  0  0  0  0  0  0  0  0  0  0
  -21.9900  -22.7920   -0.6440 C   0  0  0  0  0  3  0  0  0  0  0  0
  -22.0460  -21.8850   -1.7460 C   0  0  0  0  0  3  0  0  0  0  0  0
  -20.7070  -22.5990    1.6450 C   0  0  0  0  0  3  0  0  0  0  0  0
  -20.4660  -24.4030    3.3020 C   0  0  0  0  0  0  0  0  0  0  0  0
  -21.0530  -25.7930    3.6340 C   0  0  0  0  0  0  0  0  0  0  0  0
  -22.5400  -25.7220    3.9960 C   0  0  0  0  0  0  0  0  0  0  0  0
  -23.2220  -27.0630    3.6790 C   0  0  0  0  0  0  0  0  0  0  0  0
  -22.7730  -25.3610    5.4430 C   0  0  0  0  0  0  0  0  0  0  0  0
  -18.8900  -24.5830    3.2350 C   0  0  0  0  0  3  0  0  0  0  0  0
  -16.8090  -24.3020    4.6400 C   0  0  0  0  0  0  0  0  0  0  0  0
  -16.3300  -22.8640    4.8320 C   0  0  0  0  0  0  0  0  0  0  0  0
  -15.0620  -22.4590    4.0900 C   0  0  0  0  0  0  0  0  0  0  0  0
  -14.7450  -23.0160    2.6960 C   0  0  0  0  0  0  0  0  0  0  0  0
  -22.7170  -21.9050   -2.9900 C   0  0  0  0  0  3  0  0  0  0  0  0
  -14.0110  -21.8820    1.9490 C   0  0  0  0  0  0  0  0  0  0  0  0
  -14.9760  -20.9240    3.9150 C   0  0  0  0  0  3  0  0  0  0  0  0
  -16.5350  -25.3150    5.7710 C   0  0  0  0  0  3  0  0  0  0  0  0
  -17.0400  -26.7020    5.3150 C   0  0  0  0  0  0  0  0  0  0  0  0
  -22.5600  -20.8320   -3.8610 C   0  0  0  0  0  3  0  0  0  0  0  0
  -21.7390  -19.7400   -3.5020 C   0  0  0  0  0  3  0  0  0  0  0  0
  -21.0730  -19.6870   -2.2980 C   0  0  0  0  0  3  0  0  0  0  0  0
  -21.2400  -20.7680   -1.4280 C   0  0  0  0  0  3  0  0  0  0  0  0
  -21.2420  -22.1860    0.3290 C   0  0  0  0  0  3  0  0  0  0  0  0
  -23.2440  -24.9230   -3.5750 H   0  0  0  0  0  0  0  0  0  0  0  0
  -20.7420  -23.6470    4.0420 H   0  0  0  0  0  0  0  0  0  0  0  0
  -20.4920  -26.2350    4.4680 H   0  0  0  0  0  0  0  0  0  0  0  0
  -20.9150  -26.4610    2.7740 H   0  0  0  0  0  0  0  0  0  0  0  0
  -22.9850  -24.9460    3.3630 H   0  0  0  0  0  0  0  0  0  0  0  0
  -22.8630  -27.8520    4.3450 H   0  0  0  0  0  0  0  0  0  0  0  0
  -23.0180  -27.3720    2.6500 H   0  0  0  0  0  0  0  0  0  0  0  0
  -24.3060  -26.9890    3.7990 H   0  0  0  0  0  0  0  0  0  0  0  0
  -21.9120  -24.8190    5.8460 H   0  0  0  0  0  0  0  0  0  0  0  0
  -23.6580  -24.7250    5.5420 H   0  0  0  0  0  0  0  0  0  0  0  0
  -22.9260  -26.2620    6.0440 H   0  0  0  0  0  0  0  0  0  0  0  0
  -21.8620  -23.8140   -3.9660 H   0  0  0  0  0  0  0  0  0  0  0  0
  -18.8380  -23.9210    5.1440 H   0  0  0  0  0  0  0  0  0  0  0  0
  -16.2580  -24.7460    3.8090 H   0  0  0  0  0  0  0  0  0  0  0  0
  -16.1820  -22.7140    5.9040 H   0  0  0  0  0  0  0  0  0  0  0  0
  -17.1480  -22.2080    4.5300 H   0  0  0  0  0  0  0  0  0  0  0  0
  -14.2150  -22.7570    4.7210 H   0  0  0  0  0  0  0  0  0  0  0  0
  -14.1100  -23.9000    2.7600 H   0  0  0  0  0  0  0  0  0  0  0  0
  -15.6580  -23.2900    2.1650 H   0  0  0  0  0  0  0  0  0  0  0  0
  -12.9250  -22.0410    1.9440 H   0  0  0  0  0  0  0  0  0  0  0  0
  -14.3490  -21.8010    0.9090 H   0  0  0  0  0  0  0  0  0  0  0  0
  -14.1960  -19.7470    2.4160 H   0  0  0  0  0  0  0  0  0  0  0  0
  -23.3550  -23.8030   -4.9980 H   0  0  0  0  0  0  0  0  0  0  0  0
  -14.8890  -26.3330    6.1480 H   0  0  0  0  0  0  0  0  0  0  0  0
  -18.0230  -26.5680    4.8460 H   0  0  0  0  0  0  0  0  0  0  0  0
  -16.3460  -27.0840    4.5570 H   0  0  0  0  0  0  0  0  0  0  0  0
  -17.2500  -28.5060    6.0530 H   0  0  0  0  0  0  0  0  0  0  0  0
  -23.0590  -20.8170   -4.8190 H   0  0  0  0  0  0  0  0  0  0  0  0
  -21.6360  -18.9210   -4.2040 H   0  0  0  0  0  0  0  0  0  0  0  0
  -20.4470  -18.8420   -2.0390 H   0  0  0  0  0  0  0  0  0  0  0  0
  -20.0760  -20.4410    0.3320 H   0  0  0  0  0  0  0  0  0  0  0  0
  -22.4530  -23.7640   -0.5970 H   0  0  0  0  0  0  0  0  0  0  0  0
  -21.7360  -24.3700    1.6450 H   0  0  0  0  0  0  0  0  0  0  0  0
  -20.9520  -23.8680    2.0450 N   0  0  0  0  0  0  0  0  0  0  0  0
  -18.2620  -24.2460    4.3810 N   0  0  0  0  0  0  0  0  0  0  0  0
  -14.3710  -20.6920    2.7220 N   0  0  0  0  0  0  0  0  0  0  0  0
  -20.7320  -21.0060   -0.1870 N   0  0  0  0  0  0  0  0  0  0  0  0
  -20.0590  -21.8010    2.3140 O   0  0  0  0  0  1  0  0  0  0  0  0
  -23.4860  -23.0080   -3.2050 O   0  0  0  0  0  0  0  0  0  0  0  0
  -18.2930  -24.9970    2.2420 O   0  0  0  0  0  1  0  0  0  0  0  0
  -15.3740  -20.0790    4.7030 O   0  0  0  0  0  1  0  0  0  0  0  0
  -15.1550  -25.4120    5.9300 O   0  0  0  0  0  0  0  0  0  0  0  0
  -17.1330  -27.6210    6.4190 O   0  0  0  0  0  0  0  0  0  0  0  0
  1 25  1  0
  1 36  1  0
  1 47  1  0
  1 63  1  0
  2  3  1  0
  2 24  1  0
  2 56  1  0
  3 15  1  0
  3 23  1  0
  4 24  1  0
  4 58  1  0
  4 62  1  0
  5  6  1  0
  5 10  1  0
  5 26  1  0
  5 58  1  0
  6  7  1  0
  6 27  1  0
  6 28  1  0
  7  8  1  0
  7  9  1  0
  7 29  1  0
  8 30  1  0
  8 31  1  0
  8 32  1  0
  9 33  1  0
  9 34  1  0
  9 35  1  0
 10 59  1  0
 10 64  1  0
 11 12  1  0
 11 18  1  0
 11 38  1  0
 11 59  1  0
 12 13  1  0
 12 39  1  0
 12 40  1  0
 13 14  1  0
 13 17  1  0
 13 41  1  0
 14 16  1  0
 14 42  1  0
 14 43  1  0
 15 20  1  0
 15 63  1  0
 16 44  1  0
 16 45  1  0
 16 60  1  0
 17 60  1  0
 17 65  1  0
 18 19  1  0
 18 66  1  0
 19 49  1  0
 19 50  1  0
 19 67  1  0
 20 21  1  0
 20 52  1  0
 21 22  1  0
 21 53  1  0
 22 23  1  0
 22 54  1  0
 23 61  1  0
 24 61  1  0
 37 59  1  0
 46 60  1  0
 48 66  1  0
 51 67  1  0
 55 61  1  0
 57 58  1  0
M  END
$$$$
