9opm_B_V2M_401
     RDKit          3D

 67 69  0  0  0  0  0  0  0  0999 V2000
  -23.4490  -23.9780   -4.0560 C   0  0  0  0  0  0  0  0  0  0  0  0
  -22.1680  -22.8860   -0.4960 C   0  0  0  0  0  3  0  0  0  0  0  0
  -22.3090  -21.9920   -1.6000 C   0  0  0  0  0  3  0  0  0  0  0  0
  -20.7740  -22.6770    1.7170 C   0  0  0  0  0  3  0  0  0  0  0  0
  -20.6740  -24.4040    3.4330 C   0  0  0  0  0  0  0  0  0  0  0  0
  -21.1350  -25.8570    3.7550 C   0  0  0  0  0  0  0  0  0  0  0  0
  -22.5270  -26.1190    4.3440 C   0  0  0  0  0  0  0  0  0  0  0  0
  -23.0680  -24.9950    5.2240 C   0  0  0  0  0  0  0  0  0  0  0  0
  -23.5290  -26.4980    3.2350 C   0  0  0  0  0  0  0  0  0  0  0  0
  -19.1030  -24.5620    3.3260 C   0  0  0  0  0  3  0  0  0  0  0  0
  -16.9960  -24.3350    4.6590 C   0  0  0  0  0  0  0  0  0  0  0  0
  -16.5090  -22.9250    4.8330 C   0  0  0  0  0  0  0  0  0  0  0  0
  -15.3690  -22.4930    3.9010 C   0  0  0  0  0  0  0  0  0  0  0  0
  -15.3020  -22.8840    2.4160 C   0  0  0  0  0  0  0  0  0  0  0  0
  -23.0390  -22.0420   -2.8090 C   0  0  0  0  0  3  0  0  0  0  0  0
  -14.2970  -21.8480    1.8590 C   0  0  0  0  0  0  0  0  0  0  0  0
  -15.2540  -20.9540    3.8550 C   0  0  0  0  0  3  0  0  0  0  0  0
  -16.7590  -25.3500    5.8080 C   0  0  0  0  0  3  0  0  0  0  0  0
  -17.4140  -26.6760    5.3720 C   0  0  0  0  0  0  0  0  0  0  0  0
  -22.9520  -20.9740   -3.6900 C   0  0  0  0  0  3  0  0  0  0  0  0
  -22.1490  -19.8520   -3.3810 C   0  0  0  0  0  3  0  0  0  0  0  0
  -21.4220  -19.7650   -2.2090 C   0  0  0  0  0  3  0  0  0  0  0  0
  -21.5160  -20.8530   -1.3260 C   0  0  0  0  0  3  0  0  0  0  0  0
  -21.3660  -22.2470    0.4330 C   0  0  0  0  0  3  0  0  0  0  0  0
  -24.3090  -23.9740   -4.7240 H   0  0  0  0  0  0  0  0  0  0  0  0
  -20.9990  -23.6590    4.1640 H   0  0  0  0  0  0  0  0  0  0  0  0
  -20.3990  -26.2820    4.4500 H   0  0  0  0  0  0  0  0  0  0  0  0
  -21.0580  -26.4340    2.8240 H   0  0  0  0  0  0  0  0  0  0  0  0
  -22.3960  -26.9470    5.0500 H   0  0  0  0  0  0  0  0  0  0  0  0
  -23.7480  -24.3510    4.6610 H   0  0  0  0  0  0  0  0  0  0  0  0
  -22.2550  -24.3740    5.6080 H   0  0  0  0  0  0  0  0  0  0  0  0
  -23.6170  -25.3980    6.0800 H   0  0  0  0  0  0  0  0  0  0  0  0
  -23.6150  -25.6900    2.5040 H   0  0  0  0  0  0  0  0  0  0  0  0
  -23.2000  -27.4020    2.7140 H   0  0  0  0  0  0  0  0  0  0  0  0
  -24.5190  -26.6860    3.6610 H   0  0  0  0  0  0  0  0  0  0  0  0
  -23.2550  -24.9580   -3.6220 H   0  0  0  0  0  0  0  0  0  0  0  0
  -19.0000  -23.9790    5.2560 H   0  0  0  0  0  0  0  0  0  0  0  0
  -16.4460  -24.7670    3.8220 H   0  0  0  0  0  0  0  0  0  0  0  0
  -16.1900  -22.8140    5.8720 H   0  0  0  0  0  0  0  0  0  0  0  0
  -17.3650  -22.2630    4.6910 H   0  0  0  0  0  0  0  0  0  0  0  0
  -14.4560  -22.9160    4.3410 H   0  0  0  0  0  0  0  0  0  0  0  0
  -14.9390  -23.9030    2.2760 H   0  0  0  0  0  0  0  0  0  0  0  0
  -16.2730  -22.7980    1.9260 H   0  0  0  0  0  0  0  0  0  0  0  0
  -13.2580  -22.1670    2.0010 H   0  0  0  0  0  0  0  0  0  0  0  0
  -14.4530  -21.6590    0.7890 H   0  0  0  0  0  0  0  0  0  0  0  0
  -14.4130  -19.7170    2.4120 H   0  0  0  0  0  0  0  0  0  0  0  0
  -22.5630  -23.5310   -4.5040 H   0  0  0  0  0  0  0  0  0  0  0  0
  -14.9890  -25.7790    5.0880 H   0  0  0  0  0  0  0  0  0  0  0  0
  -16.8560  -27.0570    4.5070 H   0  0  0  0  0  0  0  0  0  0  0  0
  -18.4380  -26.4530    5.0470 H   0  0  0  0  0  0  0  0  0  0  0  0
  -17.3260  -28.5190    5.9940 H   0  0  0  0  0  0  0  0  0  0  0  0
  -23.4950  -20.9820   -4.6240 H   0  0  0  0  0  0  0  0  0  0  0  0
  -22.1080  -19.0370   -4.0940 H   0  0  0  0  0  0  0  0  0  0  0  0
  -20.8100  -18.9000   -1.9850 H   0  0  0  0  0  0  0  0  0  0  0  0
  -20.2600  -20.4640    0.3730 H   0  0  0  0  0  0  0  0  0  0  0  0
  -22.6060  -23.8680   -0.4120 H   0  0  0  0  0  0  0  0  0  0  0  0
  -22.0970  -24.2420    1.9070 H   0  0  0  0  0  0  0  0  0  0  0  0
  -21.2030  -23.8660    2.2010 N   0  0  0  0  0  0  0  0  0  0  0  0
  -18.4490  -24.2700    4.4610 N   0  0  0  0  0  0  0  0  0  0  0  0
  -14.6220  -20.6690    2.6720 N   0  0  0  0  0  0  0  0  0  0  0  0
  -20.9230  -21.0560   -0.1060 N   0  0  0  0  0  0  0  0  0  0  0  0
  -19.9040  -22.0120    2.2750 O   0  0  0  0  0  1  0  0  0  0  0  0
  -23.7890  -23.1590   -2.9990 O   0  0  0  0  0  0  0  0  0  0  0  0
  -18.4890  -24.9380    2.3200 O   0  0  0  0  0  1  0  0  0  0  0  0
  -15.6440  -20.1540    4.6880 O   0  0  0  0  0  1  0  0  0  0  0  0
  -15.3730  -25.5140    5.9560 O   0  0  0  0  0  0  0  0  0  0  0  0
  -17.4310  -27.6570    6.4180 O   0  0  0  0  0  0  0  0  0  0  0  0
  1 25  1  0
  1 36  1  0
  1 47  1  0
  1 63  1  0
  2  3  1  0
  2 24  1  0
  2 56  1  0
  3 15  1  0
  3 23  1  0
  4 24  1  0
  4 58  1  0
  4 62  1  0
  5  6  1  0
  5 10  1  0
  5 26  1  0
  5 58  1  0
  6  7  1  0
  6 27  1  0
  6 28  1  0
  7  8  1  0
  7  9  1  0
  7 29  1  0
  8 30  1  0
  8 31  1  0
  8 32  1  0
  9 33  1  0
  9 34  1  0
  9 35  1  0
 10 59  1  0
 10 64  1  0
 11 12  1  0
 11 18  1  0
 11 38  1  0
 11 59  1  0
 12 13  1  0
 12 39  1  0
 12 40  1  0
 13 14  1  0
 13 17  1  0
 13 41  1  0
 14 16  1  0
 14 42  1  0
 14 43  1  0
 15 20  1  0
 15 63  1  0
 16 44  1  0
 16 45  1  0
 16 60  1  0
 17 60  1  0
 17 65  1  0
 18 19  1  0
 18 66  1  0
 19 49  1  0
 19 50  1  0
 19 67  1  0
 20 21  1  0
 20 52  1  0
 21 22  1  0
 21 53  1  0
 22 23  1  0
 22 54  1  0
 23 61  1  0
 24 61  1  0
 37 59  1  0
 46 60  1  0
 48 66  1  0
 51 67  1  0
 55 61  1  0
 57 58  1  0
M  END
$$$$
