9opn_B_V2M_401
     RDKit          3D

 67 69  0  0  0  0  0  0  0  0999 V2000
  -23.9410  -23.8120   -4.1990 C   0  0  0  0  0  0  0  0  0  0  0  0
  -22.1150  -22.9940   -0.4670 C   0  0  0  0  0  3  0  0  0  0  0  0
  -22.3510  -22.1160   -1.5560 C   0  0  0  0  0  3  0  0  0  0  0  0
  -20.7730  -22.6490    1.7300 C   0  0  0  0  0  3  0  0  0  0  0  0
  -20.5850  -24.3380    3.4710 C   0  0  0  0  0  0  0  0  0  0  0  0
  -21.2260  -25.7340    3.7600 C   0  0  0  0  0  0  0  0  0  0  0  0
  -22.7080  -25.6320    4.1050 C   0  0  0  0  0  0  0  0  0  0  0  0
  -23.3210  -27.0310    4.0980 C   0  0  0  0  0  0  0  0  0  0  0  0
  -22.9320  -24.9830    5.4610 C   0  0  0  0  0  0  0  0  0  0  0  0
  -19.0460  -24.6100    3.3500 C   0  0  0  0  0  3  0  0  0  0  0  0
  -16.9030  -24.3910    4.6620 C   0  0  0  0  0  0  0  0  0  0  0  0
  -16.2010  -23.0590    4.8520 C   0  0  0  0  0  0  0  0  0  0  0  0
  -16.1640  -22.2440    3.5460 C   0  0  0  0  0  0  0  0  0  0  0  0
  -15.4190  -22.8540    2.3440 C   0  0  0  0  0  0  0  0  0  0  0  0
  -23.0750  -22.2630   -2.7500 C   0  0  0  0  0  3  0  0  0  0  0  0
  -14.4900  -21.7580    1.7980 C   0  0  0  0  0  0  0  0  0  0  0  0
  -15.5030  -20.8810    3.7820 C   0  0  0  0  0  3  0  0  0  0  0  0
  -16.7000  -25.4100    5.8290 C   0  0  0  0  0  3  0  0  0  0  0  0
  -17.3460  -26.7500    5.4030 C   0  0  0  0  0  0  0  0  0  0  0  0
  -23.1230  -21.2000   -3.6450 C   0  0  0  0  0  3  0  0  0  0  0  0
  -22.4530  -19.9900   -3.3590 C   0  0  0  0  0  3  0  0  0  0  0  0
  -21.7350  -19.8100   -2.1910 C   0  0  0  0  0  3  0  0  0  0  0  0
  -21.6910  -20.8920   -1.2950 C   0  0  0  0  0  3  0  0  0  0  0  0
  -21.4020  -22.2610    0.4650 C   0  0  0  0  0  3  0  0  0  0  0  0
  -24.1030  -24.8890   -4.2030 H   0  0  0  0  0  0  0  0  0  0  0  0
  -20.7300  -23.5520    4.2170 H   0  0  0  0  0  0  0  0  0  0  0  0
  -20.6880  -26.2150    4.5880 H   0  0  0  0  0  0  0  0  0  0  0  0
  -21.0960  -26.3810    2.8830 H   0  0  0  0  0  0  0  0  0  0  0  0
  -23.1960  -25.0270    3.3320 H   0  0  0  0  0  0  0  0  0  0  0  0
  -22.8030  -27.6880    4.8020 H   0  0  0  0  0  0  0  0  0  0  0  0
  -23.2540  -27.4830    3.1050 H   0  0  0  0  0  0  0  0  0  0  0  0
  -24.3760  -26.9980    4.3830 H   0  0  0  0  0  0  0  0  0  0  0  0
  -23.3320  -23.9720    5.3410 H   0  0  0  0  0  0  0  0  0  0  0  0
  -21.9900  -24.9180    6.0150 H   0  0  0  0  0  0  0  0  0  0  0  0
  -23.6420  -25.5670    6.0540 H   0  0  0  0  0  0  0  0  0  0  0  0
  -24.8360  -23.2490   -4.4610 H   0  0  0  0  0  0  0  0  0  0  0  0
  -18.8670  -23.8230    5.2140 H   0  0  0  0  0  0  0  0  0  0  0  0
  -16.4760  -24.8400    3.7650 H   0  0  0  0  0  0  0  0  0  0  0  0
  -15.1880  -23.2460    5.2130 H   0  0  0  0  0  0  0  0  0  0  0  0
  -16.7190  -22.5000    5.6350 H   0  0  0  0  0  0  0  0  0  0  0  0
  -17.1860  -22.0210    3.2130 H   0  0  0  0  0  0  0  0  0  0  0  0
  -16.1210  -23.1700    1.5700 H   0  0  0  0  0  0  0  0  0  0  0  0
  -14.8340  -23.7240    2.6480 H   0  0  0  0  0  0  0  0  0  0  0  0
  -13.4580  -22.1190    1.7080 H   0  0  0  0  0  0  0  0  0  0  0  0
  -14.8180  -21.4120    0.8100 H   0  0  0  0  0  0  0  0  0  0  0  0
  -14.0300  -19.8480    2.7700 H   0  0  0  0  0  0  0  0  0  0  0  0
  -23.0680  -23.5130   -4.7760 H   0  0  0  0  0  0  0  0  0  0  0  0
  -14.9300  -25.7480    5.0870 H   0  0  0  0  0  0  0  0  0  0  0  0
  -16.7930  -27.1110    4.5270 H   0  0  0  0  0  0  0  0  0  0  0  0
  -18.3740  -26.5290    5.0930 H   0  0  0  0  0  0  0  0  0  0  0  0
  -17.4130  -28.6220    5.9740 H   0  0  0  0  0  0  0  0  0  0  0  0
  -23.6720  -21.2820   -4.5730 H   0  0  0  0  0  0  0  0  0  0  0  0
  -22.5090  -19.1830   -4.0810 H   0  0  0  0  0  0  0  0  0  0  0  0
  -21.2290  -18.8770   -1.9790 H   0  0  0  0  0  0  0  0  0  0  0  0
  -20.4750  -20.3810    0.3980 H   0  0  0  0  0  0  0  0  0  0  0  0
  -22.4310  -24.0220   -0.3910 H   0  0  0  0  0  0  0  0  0  0  0  0
  -22.0750  -24.2130    2.0090 H   0  0  0  0  0  0  0  0  0  0  0  0
  -21.1710  -23.8270    2.2560 N   0  0  0  0  0  0  0  0  0  0  0  0
  -18.3470  -24.2420    4.4560 N   0  0  0  0  0  0  0  0  0  0  0  0
  -14.5880  -20.6880    2.7900 N   0  0  0  0  0  0  0  0  0  0  0  0
  -21.0780  -21.0350   -0.0770 N   0  0  0  0  0  0  0  0  0  0  0  0
  -19.9110  -21.9540    2.2420 O   0  0  0  0  0  1  0  0  0  0  0  0
  -23.6600  -23.4820   -2.8960 O   0  0  0  0  0  0  0  0  0  0  0  0
  -18.5110  -25.1200    2.3690 O   0  0  0  0  0  1  0  0  0  0  0  0
  -15.7440  -20.1140    4.6940 O   0  0  0  0  0  1  0  0  0  0  0  0
  -15.3260  -25.6050    5.9800 O   0  0  0  0  0  0  0  0  0  0  0  0
  -17.3550  -27.7630    6.4190 O   0  0  0  0  0  0  0  0  0  0  0  0
  1 25  1  0
  1 36  1  0
  1 47  1  0
  1 63  1  0
  2  3  1  0
  2 24  1  0
  2 56  1  0
  3 15  1  0
  3 23  1  0
  4 24  1  0
  4 58  1  0
  4 62  1  0
  5  6  1  0
  5 10  1  0
  5 26  1  0
  5 58  1  0
  6  7  1  0
  6 27  1  0
  6 28  1  0
  7  8  1  0
  7  9  1  0
  7 29  1  0
  8 30  1  0
  8 31  1  0
  8 32  1  0
  9 33  1  0
  9 34  1  0
  9 35  1  0
 10 59  1  0
 10 64  1  0
 11 12  1  0
 11 18  1  0
 11 38  1  0
 11 59  1  0
 12 13  1  0
 12 39  1  0
 12 40  1  0
 13 14  1  0
 13 17  1  0
 13 41  1  0
 14 16  1  0
 14 42  1  0
 14 43  1  0
 15 20  1  0
 15 63  1  0
 16 44  1  0
 16 45  1  0
 16 60  1  0
 17 60  1  0
 17 65  1  0
 18 19  1  0
 18 66  1  0
 19 49  1  0
 19 50  1  0
 19 67  1  0
 20 21  1  0
 20 52  1  0
 21 22  1  0
 21 53  1  0
 22 23  1  0
 22 54  1  0
 23 61  1  0
 24 61  1  0
 37 59  1  0
 46 60  1  0
 48 66  1  0
 51 67  1  0
 55 61  1  0
 57 58  1  0
M  END
$$$$
