9pfh_A_WZK_401
     RDKit          3D

 31 34  0  0  0  0  0  0  0  0999 V2000
  -27.4500    4.2630   25.2120 C   0  0  0  0  0  1  0  0  0  0  0  0
  -22.2990    4.3880   30.7110 C   0  0  0  0  0  3  0  0  0  0  0  0
  -22.3750    3.1180   30.2250 C   0  0  0  0  0  2  0  0  0  0  0  0
  -22.6440    2.1570   31.2990 C   0  0  0  0  0  3  0  0  0  0  0  0
  -22.7930    2.6810   32.5250 C   0  0  0  0  0  2  0  0  0  0  0  0
  -20.7100    5.4180   27.9950 C   0  0  0  0  0  3  0  0  0  0  0  0
  -20.6130    5.3140   26.4910 C   0  0  0  0  0  2  0  0  0  0  0  0
  -19.2020    5.3090   25.9610 C   0  0  0  0  0  3  0  0  0  0  0  0
  -18.6160    4.0890   25.6640 C   0  0  0  0  0  2  0  0  0  0  0  0
  -16.6480    5.0270   24.9720 C   0  0  0  0  0  2  0  0  0  0  0  0
  -17.1050    6.3350   25.2250 C   0  0  0  0  0  3  0  0  0  0  0  0
  -28.3330    5.4410   27.2110 C   0  0  0  0  0  1  0  0  0  0  0  0
  -16.3080    7.4760   24.9900 C   0  0  0  0  0  2  0  0  0  0  0  0
  -16.7970    8.7150   25.2490 C   0  0  0  0  0  2  0  0  0  0  0  0
  -18.0950    8.8940   25.7540 C   0  0  0  0  0  2  0  0  0  0  0  0
  -18.9050    7.8150   26.0000 C   0  0  0  0  0  3  0  0  0  0  0  0
  -18.4320    6.4870   25.7390 C   0  0  0  0  0  3  0  0  0  0  0  0
  -25.9250    5.0170   26.9830 C   0  0  0  0  0  3  0  0  0  0  0  0
  -25.6830    5.6130   28.2320 C   0  0  0  0  0  2  0  0  0  0  0  0
  -24.4040    5.7300   28.7320 C   0  0  0  0  0  2  0  0  0  0  0  0
  -24.8170    4.5510   26.2590 C   0  0  0  0  0  2  0  0  0  0  0  0
  -23.5370    4.6750   26.7550 C   0  0  0  0  0  2  0  0  0  0  0  0
  -23.2810    5.2490   28.0240 C   0  0  0  0  0  3  0  0  0  0  0  0
  -22.0020    5.6680   30.0090 C   0  0  0  0  0  2  0  0  0  0  0  0
  -22.7710    0.4740   31.0840 Cl  0  0  0  0  0  0  0  0  0  0  0  0
  -27.1990    4.9060   26.4850 N   0  0  0  0  0  0  0  0  0  0  0  0
  -21.9520    5.4110   28.5710 N   0  0  0  0  0  0  0  0  0  0  0  0
  -17.3520    3.9380   25.1740 N   0  0  0  0  0  2  0  0  0  0  0  0
  -20.1470    8.0880   26.4910 O   0  0  0  0  0  1  0  0  0  0  0  0
  -19.6990    5.5120   28.6830 O   0  0  0  0  0  1  0  0  0  0  0  0
  -22.6080    4.4030   32.4170 S   0  0  0  0  0  0  0  0  0  0  0  0
  1 26  1  0
  2  3  1  0
  2 24  1  0
  2 31  1  0
  3  4  1  0
  4  5  1  0
  4 25  1  0
  5 31  1  0
  6  7  1  0
  6 27  1  0
  6 30  1  0
  7  8  1  0
  8  9  1  0
  8 17  1  0
  9 28  1  0
 10 11  1  0
 10 28  1  0
 11 13  1  0
 11 17  1  0
 12 26  1  0
 13 14  1  0
 14 15  1  0
 15 16  1  0
 16 17  1  0
 16 29  1  0
 18 19  1  0
 18 21  1  0
 18 26  1  0
 19 20  1  0
 20 23  1  0
 21 22  1  0
 22 23  1  0
 23 27  1  0
 24 27  1  0
M  END
$$$$
