9pfh_B_WZK_401
     RDKit          3D

 31 34  0  0  0  0  0  0  0  0999 V2000
   16.2040  -17.8270   -0.7530 C   0  0  0  0  0  1  0  0  0  0  0  0
   17.3930  -10.9870    1.3220 C   0  0  0  0  0  3  0  0  0  0  0  0
   16.2200  -10.6190    0.7370 C   0  0  0  0  0  2  0  0  0  0  0  0
   16.4390   -9.7680   -0.4350 C   0  0  0  0  0  3  0  0  0  0  0  0
   17.7250   -9.5540   -0.7530 C   0  0  0  0  0  2  0  0  0  0  0  0
   15.6580  -11.8900    3.9510 C   0  0  0  0  0  3  0  0  0  0  0  0
   14.3880  -12.5730    4.4020 C   0  0  0  0  0  2  0  0  0  0  0  0
   13.8750  -12.0840    5.7330 C   0  0  0  0  0  3  0  0  0  0  0  0
   12.8440  -11.1580    5.7480 C   0  0  0  0  0  2  0  0  0  0  0  0
   12.7720  -11.0430    8.0290 C   0  0  0  0  0  2  0  0  0  0  0  0
   13.8200  -11.9740    8.1720 C   0  0  0  0  0  3  0  0  0  0  0  0
   13.8010  -17.1900   -0.7690 C   0  0  0  0  0  1  0  0  0  0  0  0
   14.3090  -12.3790    9.4330 C   0  0  0  0  0  2  0  0  0  0  0  0
   15.3210  -13.2780    9.5160 C   0  0  0  0  0  2  0  0  0  0  0  0
   15.9040  -13.8260    8.3630 C   0  0  0  0  0  2  0  0  0  0  0  0
   15.4610  -13.4640    7.1170 C   0  0  0  0  0  3  0  0  0  0  0  0
   14.3960  -12.5170    6.9800 C   0  0  0  0  0  3  0  0  0  0  0  0
   15.4350  -15.8290    0.4460 C   0  0  0  0  0  3  0  0  0  0  0  0
   16.7560  -15.4870    0.7800 C   0  0  0  0  0  2  0  0  0  0  0  0
   17.0350  -14.3780    1.5520 C   0  0  0  0  0  2  0  0  0  0  0  0
   14.4050  -15.0180    0.9450 C   0  0  0  0  0  2  0  0  0  0  0  0
   14.6800  -13.9240    1.7320 C   0  0  0  0  0  2  0  0  0  0  0  0
   16.0080  -13.5410    2.0350 C   0  0  0  0  0  3  0  0  0  0  0  0
   17.6160  -11.8160    2.5410 C   0  0  0  0  0  2  0  0  0  0  0  0
   15.1960   -9.0830   -1.3770 Cl  0  0  0  0  0  0  0  0  0  0  0  0
   15.1540  -16.9260   -0.3250 N   0  0  0  0  0  0  0  0  0  0  0  0
   16.3230  -12.4090    2.8750 N   0  0  0  0  0  0  0  0  0  0  0  0
   12.2890  -10.6370    6.8800 N   0  0  0  0  0  2  0  0  0  0  0  0
   16.0940  -14.0560    6.0650 O   0  0  0  0  0  1  0  0  0  0  0  0
   16.0850  -10.9000    4.5370 O   0  0  0  0  0  1  0  0  0  0  0  0
   18.7290  -10.3200    0.4400 S   0  0  0  0  0  0  0  0  0  0  0  0
  1 26  1  0
  2  3  1  0
  2 24  1  0
  2 31  1  0
  3  4  1  0
  4  5  1  0
  4 25  1  0
  5 31  1  0
  6  7  1  0
  6 27  1  0
  6 30  1  0
  7  8  1  0
  8  9  1  0
  8 17  1  0
  9 28  1  0
 10 11  1  0
 10 28  1  0
 11 13  1  0
 11 17  1  0
 12 26  1  0
 13 14  1  0
 14 15  1  0
 15 16  1  0
 16 17  1  0
 16 29  1  0
 18 19  1  0
 18 21  1  0
 18 26  1  0
 19 20  1  0
 20 23  1  0
 21 22  1  0
 22 23  1  0
 23 27  1  0
 24 27  1  0
M  END
$$$$
