9sdm_A_A43_401
     RDKit          3D

 71 73  0  0  0  0  0  0  0  0999 V2000
  -24.1250    2.4830   23.8820 C   0  0  0  0  0  0  0  0  0  0  0  0
  -25.0900    3.5470   24.3610 C   0  0  0  0  0  3  0  0  0  0  0  0
  -25.7250    3.4070   25.5990 C   0  0  0  0  0  3  0  0  0  0  0  0
  -26.6690    4.3490   25.9680 C   0  0  0  0  0  3  0  0  0  0  0  0
  -27.0020    5.4110   25.1730 C   0  0  0  0  0  3  0  0  0  0  0  0
  -22.2330    3.8650   26.4270 C   0  0  0  0  0  3  0  0  0  0  0  0
  -26.3630    5.5390   23.9480 C   0  0  0  0  0  3  0  0  0  0  0  0
  -25.4110    4.6120   23.5500 C   0  0  0  0  0  3  0  0  0  0  0  0
  -21.9880    3.7250   27.9290 C   0  0  0  0  0  0  0  0  0  0  0  0
  -23.1990    3.1400   28.6850 C   0  0  0  0  0  0  0  0  0  0  0  0
  -22.9390    2.9020   30.1490 C   0  0  0  0  0  3  0  0  0  0  0  0
  -22.3380    1.7330   30.5870 C   0  0  0  0  0  3  0  0  0  0  0  0
  -21.9870    1.5640   31.9160 C   0  0  0  0  0  3  0  0  0  0  0  0
  -22.2390    2.5710   32.8290 C   0  0  0  0  0  3  0  0  0  0  0  0
  -22.8360    3.7360   32.4120 C   0  0  0  0  0  3  0  0  0  0  0  0
  -23.1860    3.8990   31.0810 C   0  0  0  0  0  3  0  0  0  0  0  0
  -20.4210    5.1890   29.0800 C   0  0  0  0  0  3  0  0  0  0  0  0
  -20.3140    6.5150   29.8550 C   0  0  0  0  0  0  0  0  0  0  0  0
  -20.2990    6.5210   32.3100 C   0  0  0  0  0  3  0  0  0  0  0  0
  -19.6560    6.0310   33.5400 C   0  0  0  0  0  3  0  0  0  0  0  0
  -18.6440    5.1770   33.7490 C   0  0  0  0  0  3  0  0  0  0  0  0
  -18.3370    4.9780   35.1490 C   0  0  0  0  0  3  0  0  0  0  0  0
  -19.1510    5.7050   35.9320 C   0  0  0  0  0  3  0  0  0  0  0  0
  -19.6790    7.7040   29.0890 C   0  0  0  0  0  0  0  0  0  0  0  0
  -19.7020    8.9590   29.9610 C   0  0  0  0  0  0  0  0  0  0  0  0
  -18.2350    7.3850   28.7010 C   0  0  0  0  0  0  0  0  0  0  0  0
  -20.4840    7.9620   27.8180 C   0  0  0  0  0  0  0  0  0  0  0  0
  -21.6420    2.4840   23.6970 C   0  0  0  0  0  3  0  0  0  0  0  0
  -20.3340    2.2620   24.4560 C   0  0  0  0  0  3  0  0  0  0  0  0
  -27.4430    4.1790   27.5300 Cl  0  0  0  0  0  0  0  0  0  0  0  0
  -24.0370    2.5070   22.9070 H   0  0  0  0  0  0  0  0  0  0  0  0
  -24.4410    1.5900   24.1290 H   0  0  0  0  0  0  0  0  0  0  0  0
  -25.5180    2.6650   26.2020 H   0  0  0  0  0  0  0  0  0  0  0  0
  -27.6720    6.0660   25.4560 H   0  0  0  0  0  0  0  0  0  0  0  0
  -26.5820    6.2870   23.3560 H   0  0  0  0  0  0  0  0  0  0  0  0
  -24.9690    4.7260   22.6830 H   0  0  0  0  0  0  0  0  0  0  0  0
  -21.2400    3.0980   27.9960 H   0  0  0  0  0  0  0  0  0  0  0  0
  -23.4740    2.2940   28.2750 H   0  0  0  0  0  0  0  0  0  0  0  0
  -23.9710    3.7360   28.5980 H   0  0  0  0  0  0  0  0  0  0  0  0
  -22.1490    1.0000   29.9660 H   0  0  0  0  0  0  0  0  0  0  0  0
  -21.5600    0.7370   32.2200 H   0  0  0  0  0  0  0  0  0  0  0  0
  -21.9890    2.4440   33.7670 H   0  0  0  0  0  0  0  0  0  0  0  0
  -23.0130    4.4500   33.0580 H   0  0  0  0  0  0  0  0  0  0  0  0
  -23.6130    4.7360   30.8050 H   0  0  0  0  0  0  0  0  0  0  0  0
  -22.4450    1.9700   26.2070 H   0  0  0  0  0  0  0  0  0  0  0  0
  -22.2180    5.6230   28.5470 H   0  0  0  0  0  0  0  0  0  0  0  0
  -21.2230    6.7740   30.1100 H   0  0  0  0  0  0  0  0  0  0  0  0
  -19.0630    5.5860   31.1370 H   0  0  0  0  0  0  0  0  0  0  0  0
  -18.1490    4.7220   33.0370 H   0  0  0  0  0  0  0  0  0  0  0  0
  -17.6300    4.3940   35.4920 H   0  0  0  0  0  0  0  0  0  0  0  0
  -19.1550    5.7520   36.9100 H   0  0  0  0  0  0  0  0  0  0  0  0
  -19.3030    9.7180   29.4890 H   0  0  0  0  0  0  0  0  0  0  0  0
  -19.1980    8.8160   30.7880 H   0  0  0  0  0  0  0  0  0  0  0  0
  -20.6200    9.1990   30.2020 H   0  0  0  0  0  0  0  0  0  0  0  0
  -17.6800    7.2310   29.4920 H   0  0  0  0  0  0  0  0  0  0  0  0
  -17.8320    8.1210   28.1960 H   0  0  0  0  0  0  0  0  0  0  0  0
  -18.1860    6.5820   28.1430 H   0  0  0  0  0  0  0  0  0  0  0  0
  -20.0380    7.5830   27.0330 H   0  0  0  0  0  0  0  0  0  0  0  0
  -20.6000    8.9210   27.6600 H   0  0  0  0  0  0  0  0  0  0  0  0
  -21.3760    7.5610   27.8760 H   0  0  0  0  0  0  0  0  0  0  0  0
  -20.1190    3.0620   24.9740 H   0  0  0  0  0  0  0  0  0  0  0  0
  -19.6320    2.1010   23.7980 H   0  0  0  0  0  0  0  0  0  0  0  0
  -22.6140    2.7380   25.8050 N   0  0  0  0  0  0  0  0  0  0  0  0
  -21.6120    4.9800   28.5420 N   0  0  0  0  0  0  0  0  0  0  0  0
  -19.6930    6.2040   31.1330 N   0  0  0  0  0  0  0  0  0  0  0  0
  -22.7850    2.6200   24.4280 N   0  0  0  0  0  0  0  0  0  0  0  0
  -22.0250    4.9180   25.8280 O   0  0  0  0  0  1  0  0  0  0  0  0
  -21.6500    2.4140   22.4920 O   0  0  0  0  0  1  0  0  0  0  0  0
  -21.3440    7.1610   32.3750 O   0  0  0  0  0  1  0  0  0  0  0  0
  -19.4740    4.4100   28.9720 O   0  0  0  0  0  1  0  0  0  0  0  0
  -20.2570    6.6030   35.0450 S   0  0  0  0  0  0  0  0  0  0  0  0
  1  2  1  0
  1 31  1  0
  1 32  1  0
  1 66  1  0
  2  3  1  0
  2  8  1  0
  3  4  1  0
  3 33  1  0
  4  5  1  0
  4 30  1  0
  5  7  1  0
  5 34  1  0
  6  9  1  0
  6 63  1  0
  6 67  1  0
  7  8  1  0
  7 35  1  0
  8 36  1  0
  9 10  1  0
  9 37  1  0
  9 64  1  0
 10 11  1  0
 10 38  1  0
 10 39  1  0
 11 12  1  0
 11 16  1  0
 12 13  1  0
 12 40  1  0
 13 14  1  0
 13 41  1  0
 14 15  1  0
 14 42  1  0
 15 16  1  0
 15 43  1  0
 16 44  1  0
 17 18  1  0
 17 64  1  0
 17 70  1  0
 18 24  1  0
 18 47  1  0
 18 65  1  0
 19 20  1  0
 19 65  1  0
 19 69  1  0
 20 21  1  0
 20 71  1  0
 21 22  1  0
 21 49  1  0
 22 23  1  0
 22 50  1  0
 23 51  1  0
 23 71  1  0
 24 25  1  0
 24 26  1  0
 24 27  1  0
 25 52  1  0
 25 53  1  0
 25 54  1  0
 26 55  1  0
 26 56  1  0
 26 57  1  0
 27 58  1  0
 27 59  1  0
 27 60  1  0
 28 29  1  0
 28 66  1  0
 28 68  1  0
 29 61  1  0
 29 62  1  0
 45 63  1  0
 46 64  1  0
 48 65  1  0
 63 66  1  0
M  END
$$$$
