9xz6_A_A47_401
     RDKit          3D

 30 31  0  0  0  0  0  0  0  0999 V2000
    9.3130   -1.5540   21.7630 C   0  0  0  0  0  3  0  0  0  0  0  0
    7.5840   -2.7580   20.3120 C   0  0  0  0  0  3  0  0  0  0  0  0
    6.7340   -1.9710   19.3010 C   0  0  0  0  0  2  0  0  0  0  0  0
    7.4040   -0.6520   18.8500 C   0  0  0  0  0  2  0  0  0  0  0  0
    4.9690    1.0240   19.0260 C   0  0  0  0  0  1  0  0  0  0  0  0
    7.7380   -4.1970   19.8210 C   0  0  0  0  0  2  0  0  0  0  0  0
   10.7590   -0.7920   21.8370 C   0  0  0  0  0  3  0  0  0  0  0  0
   11.6440   -1.3860   22.4130 C   0  0  0  0  0  3  0  0  0  0  0  0
   13.1630   -1.3380   23.0020 C   0  0  0  0  0  0  0  0  0  0  0  0
   14.0680   -0.3150   22.2970 C   0  0  0  0  0  1  0  0  0  0  0  0
   11.9560   -0.6590   23.8570 C   0  0  0  0  0  3  0  0  0  0  0  0
   11.0530    0.1830   24.0570 C   0  0  0  0  0  2  0  0  0  0  0  0
   10.2220    1.8350   22.1560 C   0  0  0  0  0  3  0  0  0  0  0  0
   10.1970    3.0300   23.1140 C   0  0  0  0  0  3  0  0  0  0  0  0
    8.7740    3.5690   23.3470 C   0  0  0  0  0  0  0  0  0  0  0  0
    7.7860    2.4000   23.5870 C   0  0  0  0  0  1  0  0  0  0  0  0
    8.2790    4.4370   22.1610 C   0  0  0  0  0  1  0  0  0  0  0  0
    8.8520    4.4570   24.6090 C   0  0  0  0  0  1  0  0  0  0  0  0
   12.4260    4.1580   22.9470 C   0  0  0  0  0  3  0  0  0  0  0  0
   13.9540    5.5680   21.8270 C   0  0  0  0  0  1  0  0  0  0  0  0
   13.7680   -2.6330   23.5860 C   0  0  0  0  0  1  0  0  0  0  0  0
    8.8740   -2.0870   20.4570 N   0  0  0  0  0  2  0  0  0  0  0  0
   10.6370    0.5330   22.6710 N   0  0  0  0  0  0  0  0  0  0  0  0
   11.0220    4.0720   22.5430 N   0  0  0  0  0  2  0  0  0  0  0  0
    8.6280   -1.6520   22.7210 O   0  0  0  0  0  1  0  0  0  0  0  0
    6.7420   -4.8400   19.7250 O   0  0  0  0  0  1  0  0  0  0  0  0
   13.0980    5.3910   22.9250 O   0  0  0  0  0  0  0  0  0  0  0  0
   12.9950    3.1850   23.2990 O   0  0  0  0  0  1  0  0  0  0  0  0
    9.9390    1.9210   21.0150 O   0  0  0  0  0  1  0  0  0  0  0  0
    6.2220    0.3560   17.8920 S   0  0  0  0  0  0  0  0  0  0  0  0
  1  7  1  0
  1 22  1  0
  1 25  1  0
  2  3  1  0
  2  6  1  0
  2 22  1  0
  3  4  1  0
  4 30  1  0
  5 30  1  0
  6 26  1  0
  7  8  1  0
  7 23  1  0
  8  9  1  0
  8 11  1  0
  9 10  1  0
  9 11  1  0
  9 21  1  0
 11 12  1  0
 12 23  1  0
 13 14  1  0
 13 23  1  0
 13 29  1  0
 14 15  1  0
 14 24  1  0
 15 16  1  0
 15 17  1  0
 15 18  1  0
 19 24  1  0
 19 27  1  0
 19 28  1  0
 20 27  1  0
M  END
$$$$
