9znl_A_A48_401
     RDKit          3D

 84 88  0  0  0  0  0  0  0  0999 V2000
    7.9540   27.9200   22.3060 C   0  0  0  0  0  3  0  0  0  0  0  0
    6.9700   27.6040   23.4820 C   0  0  0  0  0  0  0  0  0  0  0  0
    6.7770   28.8880   24.2730 C   0  0  0  0  0  0  0  0  0  0  0  0
    6.6840   28.6110   25.7920 C   0  0  0  0  0  3  0  0  0  0  0  0
    5.8370   29.4050   26.6110 C   0  0  0  0  0  3  0  0  0  0  0  0
    5.7900   29.1600   27.9980 C   0  0  0  0  0  3  0  0  0  0  0  0
    6.5690   28.1340   28.5410 C   0  0  0  0  0  3  0  0  0  0  0  0
    7.3910   27.3480   27.7450 C   0  0  0  0  0  3  0  0  0  0  0  0
    7.4550   27.6120   26.3510 C   0  0  0  0  0  3  0  0  0  0  0  0
    8.3360   26.7550   25.4360 C   0  0  0  0  0  0  0  0  0  0  0  0
    7.3530   25.1480   23.7250 C   0  0  0  0  0  3  0  0  0  0  0  0
    7.9650   23.9220   24.4540 C   0  0  0  0  0  0  0  0  0  0  0  0
    9.2210   23.4460   23.7330 C   0  0  0  0  0  0  0  0  0  0  0  0
    9.6430   22.1950   24.4990 C   0  0  0  0  0  0  0  0  0  0  0  0
   10.3060   24.5620   23.8190 C   0  0  0  0  0  0  0  0  0  0  0  0
    8.9700   23.1480   22.2810 C   0  0  0  0  0  0  0  0  0  0  0  0
    6.3070   22.6510   25.6560 C   0  0  0  0  0  3  0  0  0  0  0  0
    5.1030   21.7020   25.5660 C   0  0  0  0  0  0  0  0  0  0  0  0
    8.1270   28.8510   20.0020 C   0  0  0  0  0  0  0  0  0  0  0  0
    7.7180   27.9370   18.8360 C   0  0  0  0  0  0  0  0  0  0  0  0
    7.9830   26.4110   18.9850 C   0  0  0  0  0  0  0  0  0  0  0  0
    7.6360   25.7530   17.8130 C   0  0  0  0  0  3  0  0  0  0  0  0
    9.7720   25.0320   18.3470 C   0  0  0  0  0  0  0  0  0  0  0  0
    9.4780   26.1970   19.2170 C   0  0  0  0  0  0  0  0  0  0  0  0
    7.7580   30.3630   19.7640 C   0  0  0  0  0  3  0  0  0  0  0  0
    8.6210   31.1810   20.7590 C   0  0  0  0  0  3  0  0  0  0  0  0
    9.6450   31.8590   22.6980 C   0  0  0  0  0  3  0  0  0  0  0  0
    9.9780   31.6860   24.1920 C   0  0  0  0  0  3  0  0  0  0  0  0
   10.0780   32.7820   25.0050 C   0  0  0  0  0  3  0  0  0  0  0  0
   10.3490   32.6330   26.3680 C   0  0  0  0  0  3  0  0  0  0  0  0
   10.5360   31.3590   26.8920 C   0  0  0  0  0  3  0  0  0  0  0  0
   10.4290   30.2560   26.0810 C   0  0  0  0  0  3  0  0  0  0  0  0
   10.1630   30.4100   24.7240 C   0  0  0  0  0  3  0  0  0  0  0  0
   10.0320   32.8850   21.9450 C   0  0  0  0  0  3  0  0  0  0  0  0
    4.6810   21.3930   26.8190 F   0  0  0  0  0  0  0  0  0  0  0  0
    5.2880   20.5880   24.8780 F   0  0  0  0  0  0  0  0  0  0  0  0
    4.0810   22.3400   24.9670 F   0  0  0  0  0  0  0  0  0  0  0  0
    5.9800   27.2890   23.1490 H   0  0  0  0  0  0  0  0  0  0  0  0
    7.6320   29.5340   24.0920 H   0  0  0  0  0  0  0  0  0  0  0  0
    5.8490   29.3540   23.9500 H   0  0  0  0  0  0  0  0  0  0  0  0
    5.2280   30.1960   26.1700 H   0  0  0  0  0  0  0  0  0  0  0  0
    5.1510   29.7670   28.6430 H   0  0  0  0  0  0  0  0  0  0  0  0
    6.5310   27.9480   29.6100 H   0  0  0  0  0  0  0  0  0  0  0  0
    7.9750   26.5450   28.1810 H   0  0  0  0  0  0  0  0  0  0  0  0
    8.5980   25.8240   25.9290 H   0  0  0  0  0  0  0  0  0  0  0  0
    9.2460   27.2900   25.1800 H   0  0  0  0  0  0  0  0  0  0  0  0
    8.3210   24.1140   25.4540 H   0  0  0  0  0  0  0  0  0  0  0  0
    9.1560   21.3310   24.0730 H   0  0  0  0  0  0  0  0  0  0  0  0
    9.3590   22.2940   25.5350 H   0  0  0  0  0  0  0  0  0  0  0  0
   10.7130   22.0750   24.4290 H   0  0  0  0  0  0  0  0  0  0  0  0
   10.5770   24.7270   24.8640 H   0  0  0  0  0  0  0  0  0  0  0  0
   11.1910   24.2530   23.2580 H   0  0  0  0  0  0  0  0  0  0  0  0
    9.9110   25.4870   23.3950 H   0  0  0  0  0  0  0  0  0  0  0  0
    8.7280   24.0660   21.7620 H   0  0  0  0  0  0  0  0  0  0  0  0
    8.1430   22.4550   22.1930 H   0  0  0  0  0  0  0  0  0  0  0  0
    9.8570   22.7090   21.8450 H   0  0  0  0  0  0  0  0  0  0  0  0
    6.5450   22.5610   23.6400 H   0  0  0  0  0  0  0  0  0  0  0  0
    9.2100   28.7690   20.1020 H   0  0  0  0  0  0  0  0  0  0  0  0
    8.2480   28.2740   17.9590 H   0  0  0  0  0  0  0  0  0  0  0  0
    6.6590   28.0690   18.6770 H   0  0  0  0  0  0  0  0  0  0  0  0
    7.4180   25.9770   19.7990 H   0  0  0  0  0  0  0  0  0  0  0  0
    8.6340   24.4650   16.5070 H   0  0  0  0  0  0  0  0  0  0  0  0
    9.7980   24.1190   18.9350 H   0  0  0  0  0  0  0  0  0  0  0  0
   10.7160   25.1800   17.8280 H   0  0  0  0  0  0  0  0  0  0  0  0
   10.0460   27.0650   18.9070 H   0  0  0  0  0  0  0  0  0  0  0  0
    9.6780   25.9630   20.2560 H   0  0  0  0  0  0  0  0  0  0  0  0
    8.0810   30.2380   17.8440 H   0  0  0  0  0  0  0  0  0  0  0  0
    9.9460   33.7720   24.5890 H   0  0  0  0  0  0  0  0  0  0  0  0
   10.4120   33.5030   27.0110 H   0  0  0  0  0  0  0  0  0  0  0  0
   10.7690   31.2350   27.9490 H   0  0  0  0  0  0  0  0  0  0  0  0
   10.5510   29.2640   26.4990 H   0  0  0  0  0  0  0  0  0  0  0  0
   10.1010   29.5530   24.0910 H   0  0  0  0  0  0  0  0  0  0  0  0
   10.5900   33.7400   22.3000 H   0  0  0  0  0  0  0  0  0  0  0  0
    7.5560   26.4900   24.2420 N   0  0  0  0  0  0  0  0  0  0  0  0
    6.8790   22.9800   24.4990 N   0  0  0  0  0  0  0  0  0  0  0  0
    7.3930   28.4190   21.2150 N   0  0  0  0  0  2  0  0  0  0  0  0
    8.6400   24.9860   17.3630 N   0  0  0  0  0  0  0  0  0  0  0  0
    8.8860   30.9530   22.0340 N   0  0  0  0  0  2  0  0  0  0  0  0
    9.1240   27.6440   22.3830 O   0  0  0  0  0  1  0  0  0  0  0  0
    6.6700   23.0650   26.7270 O   0  0  0  0  0  1  0  0  0  0  0  0
    6.7270   25.0580   22.7000 O   0  0  0  0  0  1  0  0  0  0  0  0
    6.5720   25.7950   17.1900 O   0  0  0  0  0  1  0  0  0  0  0  0
    8.4080   30.7500   18.5710 O   0  0  0  0  0  0  0  0  0  0  0  0
    9.5060   32.6440   20.3020 S   0  0  0  0  0  0  0  0  0  0  0  0
  1  2  1  0
  1 76  1  0
  1 79  1  0
  2  3  1  0
  2 38  1  0
  2 74  1  0
  3  4  1  0
  3 39  1  0
  3 40  1  0
  4  5  1  0
  4  9  1  0
  5  6  1  0
  5 41  1  0
  6  7  1  0
  6 42  1  0
  7  8  1  0
  7 43  1  0
  8  9  1  0
  8 44  1  0
  9 10  1  0
 10 45  1  0
 10 46  1  0
 10 74  1  0
 11 12  1  0
 11 74  1  0
 11 81  1  0
 12 13  1  0
 12 47  1  0
 12 75  1  0
 13 14  1  0
 13 15  1  0
 13 16  1  0
 14 48  1  0
 14 49  1  0
 14 50  1  0
 15 51  1  0
 15 52  1  0
 15 53  1  0
 16 54  1  0
 16 55  1  0
 16 56  1  0
 17 18  1  0
 17 75  1  0
 17 80  1  0
 18 35  1  0
 18 36  1  0
 18 37  1  0
 19 20  1  0
 19 25  1  0
 19 58  1  0
 19 76  1  0
 20 21  1  0
 20 59  1  0
 20 60  1  0
 21 22  1  0
 21 24  1  0
 21 61  1  0
 22 77  1  0
 22 82  1  0
 23 24  1  0
 23 63  1  0
 23 64  1  0
 23 77  1  0
 24 65  1  0
 24 66  1  0
 25 26  1  0
 25 83  1  0
 26 78  1  0
 26 84  1  0
 27 28  1  0
 27 34  1  0
 27 78  1  0
 28 29  1  0
 28 33  1  0
 29 30  1  0
 29 68  1  0
 30 31  1  0
 30 69  1  0
 31 32  1  0
 31 70  1  0
 32 33  1  0
 32 71  1  0
 33 72  1  0
 34 73  1  0
 34 84  1  0
 57 75  1  0
 62 77  1  0
 67 83  1  0
M  END
$$$$
