4e28_A_0MZ_403
     RDKit          3D

 44 46  0  0  0  0  0  0  0  0999 V2000
   55.0010  -18.1840   14.9020 C   0  0  0  0  0  3  0  0  0  0  0  0
   49.1810  -18.0830   15.3640 C   0  0  0  0  0  3  0  0  0  0  0  0
   47.3160  -19.3100   14.2640 C   0  0  0  0  0  0  0  0  0  0  0  0
   47.0130  -18.3490   15.3790 C   0  0  0  0  0  3  0  0  0  0  0  0
   46.9860  -20.7290   14.7100 C   0  0  0  0  0  0  0  0  0  0  0  0
   46.4090  -21.5150   13.5610 C   0  0  0  0  0  3  0  0  0  0  0  0
   55.9780  -18.5880   14.0030 C   0  0  0  0  0  3  0  0  0  0  0  0
   45.0020  -21.4750   11.6600 C   0  0  0  0  0  3  0  0  0  0  0  0
   45.5230  -21.3020   10.3840 C   0  0  0  0  0  3  0  0  0  0  0  0
   44.9230  -21.9320    9.3020 C   0  0  0  0  0  3  0  0  0  0  0  0
   43.7940  -22.7210    9.4950 C   0  0  0  0  0  3  0  0  0  0  0  0
   43.2710  -22.8860   10.7730 C   0  0  0  0  0  3  0  0  0  0  0  0
   43.8720  -22.2570   11.8560 C   0  0  0  0  0  3  0  0  0  0  0  0
   42.0530  -23.7340   10.9840 C   0  0  0  0  0  0  0  0  0  0  0  0
   55.6280  -19.0600   12.7510 C   0  0  0  0  0  3  0  0  0  0  0  0
   54.2970  -19.1340   12.3870 C   0  0  0  0  0  3  0  0  0  0  0  0
   53.3170  -18.7340   13.2790 C   0  0  0  0  0  3  0  0  0  0  0  0
   53.6670  -18.2620   14.5340 C   0  0  0  0  0  3  0  0  0  0  0  0
   52.5640  -17.8560   15.4290 C   0  0  0  0  0  3  0  0  0  0  0  0
   41.9450  -24.0440   12.2630 F   0  0  0  0  0  0  0  0  0  0  0  0
   42.1500  -24.8360   10.2650 F   0  0  0  0  0  0  0  0  0  0  0  0
   40.9840  -23.0550   10.6100 F   0  0  0  0  0  0  0  0  0  0  0  0
   46.7570  -19.0470   13.3540 H   0  0  0  0  0  0  0  0  0  0  0  0
   47.8920  -21.2200   15.0720 H   0  0  0  0  0  0  0  0  0  0  0  0
   46.2670  -20.6980   15.5310 H   0  0  0  0  0  0  0  0  0  0  0  0
   57.0230  -18.5300   14.2830 H   0  0  0  0  0  0  0  0  0  0  0  0
   46.4040  -20.6900   10.2360 H   0  0  0  0  0  0  0  0  0  0  0  0
   45.3300  -21.8050    8.3060 H   0  0  0  0  0  0  0  0  0  0  0  0
   43.3240  -23.2100    8.6510 H   0  0  0  0  0  0  0  0  0  0  0  0
   43.4650  -22.3840   12.8510 H   0  0  0  0  0  0  0  0  0  0  0  0
   56.3970  -19.3710   12.0540 H   0  0  0  0  0  0  0  0  0  0  0  0
   54.0210  -19.5040   11.4080 H   0  0  0  0  0  0  0  0  0  0  0  0
   52.2740  -18.7940   12.9970 H   0  0  0  0  0  0  0  0  0  0  0  0
   52.7580  -17.4790   16.4200 H   0  0  0  0  0  0  0  0  0  0  0  0
   54.6180  -17.4080   16.6150 H   0  0  0  0  0  0  0  0  0  0  0  0
   45.8100  -17.4710   16.5270 H   0  0  0  0  0  0  0  0  0  0  0  0
   50.2730  -17.6120   15.7560 N   0  0  0  0  0  2  0  0  0  0  0  0
   48.0200  -17.8400   15.9590 N   0  0  0  0  0  2  0  0  0  0  0  0
   45.5990  -20.8410   12.7510 N   0  0  0  0  0  2  0  0  0  0  0  0
   51.3940  -17.9730   14.9960 N   0  0  0  0  0  2  0  0  0  0  0  0
   55.3910  -17.7250   16.1280 O   0  0  0  0  0  0  0  0  0  0  0  0
   46.6870  -22.6940   13.4090 O   0  0  0  0  0  1  0  0  0  0  0  0
   45.7810  -18.0400   15.7460 O   0  0  0  0  0  0  0  0  0  0  0  0
   49.0460  -19.0880   14.0530 S   0  0  0  0  0  0  0  0  0  0  0  0
  1  7  1  0
  1 18  1  0
  1 41  1  0
  2 37  1  0
  2 38  1  0
  2 44  1  0
  3  4  1  0
  3  5  1  0
  3 23  1  0
  3 44  1  0
  4 38  1  0
  4 43  1  0
  5  6  1  0
  5 24  1  0
  5 25  1  0
  6 39  1  0
  6 42  1  0
  7 15  1  0
  7 26  1  0
  8  9  1  0
  8 13  1  0
  8 39  1  0
  9 10  1  0
  9 27  1  0
 10 11  1  0
 10 28  1  0
 11 12  1  0
 11 29  1  0
 12 13  1  0
 12 14  1  0
 13 30  1  0
 14 20  1  0
 14 21  1  0
 14 22  1  0
 15 16  1  0
 15 31  1  0
 16 17  1  0
 16 32  1  0
 17 18  1  0
 17 33  1  0
 18 19  1  0
 19 34  1  0
 19 40  1  0
 35 41  1  0
 36 43  1  0
 37 40  1  0
M  END
$$$$
