4ez8_A_NOH_401
     RDKit          3D

 21 22  0  0  0  0  0  0  0  0999 V2000
   22.9000  -12.1400   10.2120 C   0  0  0  0  0  3  0  0  0  0  0  0
   23.2820  -12.4740    7.8240 C   0  0  0  0  0  3  0  0  0  0  0  0
   23.2420  -10.7060   10.6320 C   0  0  0  0  0  2  0  0  0  0  0  0
   22.9940  -10.8000   12.1230 C   0  0  0  0  0  3  0  0  0  0  0  0
   21.3540  -13.2860    6.3970 C   0  0  0  0  0  3  0  0  0  0  0  0
   21.7470  -11.6900   12.1860 C   0  0  0  0  0  3  0  0  0  0  0  0
   20.4210  -13.0910    7.5290 C   0  0  0  0  0  2  0  0  0  0  0  0
   20.4470  -10.9260   12.0330 C   0  0  0  0  0  2  0  0  0  0  0  0
   20.8720  -12.0710    8.6210 C   0  0  0  0  0  2  0  0  0  0  0  0
   22.3490  -12.2480    8.8130 N   0  0  0  0  0  0  0  0  0  0  0  0
   22.6950  -12.8140    6.5870 N   0  0  0  0  0  2  0  0  0  0  0  0
   21.1300  -13.8670    5.2900 N   0  0  0  0  0  2  0  0  0  0  0  0
   24.4890  -12.3760    7.9410 O   0  0  0  0  0  1  0  0  0  0  0  0
   24.0640  -11.5210   12.8070 O   0  0  0  0  0  1  0  0  0  0  0  0
   19.7480  -14.2450    5.2600 O   0  0  0  0  0  1  0  0  0  0  0  0
   21.8740  -12.5980   11.0880 O   0  0  0  0  0  0  0  0  0  0  0  0
   20.2740  -10.1460   13.2710 O   0  0  0  0  0  0  0  0  0  0  0  0
   20.9550   -7.8370   12.4320 O   0  0  0  0  0  1  0  0  0  0  0  0
   18.5120   -8.4760   12.5650 O   0  0  0  0  0  1  0  0  0  0  0  0
   19.9040   -8.2410   14.7030 O   0  0  0  0  0  1  0  0  0  0  0  0
   19.8770   -8.5830   13.2100 P   0  0  0  0  0  4  0  0  0  0  0  0
  1  3  1  0
  1 10  1  0
  1 16  1  0
  2 10  1  0
  2 11  1  0
  2 13  1  0
  3  4  1  0
  4  6  1  0
  4 14  1  0
  5  7  1  0
  5 11  1  0
  5 12  1  0
  6  8  1  0
  6 16  1  0
  7  9  1  0
  8 17  1  0
  9 10  1  0
 12 15  1  0
 17 21  1  0
 18 21  1  0
 19 21  1  0
 20 21  1  0
M  END
$$$$
