5wrn_E_DCM_400
     RDKit          3D

 20 21  0  0  0  0  0  0  0  0999 V2000
  -17.9790  -13.8480  -79.0830 C   0  0  0  0  0  3  0  0  0  0  0  0
  -17.0620  -16.1380  -79.5710 C   0  0  0  0  0  3  0  0  0  0  0  0
  -19.6050  -13.8070  -79.5150 C   0  0  0  0  0  2  0  0  0  0  0  0
  -20.0390  -12.5800  -79.1990 C   0  0  0  0  0  3  0  0  0  0  0  0
  -16.0550  -17.3990  -77.8120 C   0  0  0  0  0  3  0  0  0  0  0  0
  -19.2820  -12.2640  -77.8850 C   0  0  0  0  0  3  0  0  0  0  0  0
  -16.3310  -16.3730  -76.9140 C   0  0  0  0  0  2  0  0  0  0  0  0
  -19.9060  -12.7820  -76.7570 C   0  0  0  0  0  2  0  0  0  0  0  0
  -16.9700  -15.2340  -77.3800 C   0  0  0  0  0  2  0  0  0  0  0  0
  -17.3600  -15.1020  -78.6900 N   0  0  0  0  0  0  0  0  0  0  0  0
  -16.4220  -17.2630  -79.1060 N   0  0  0  0  0  2  0  0  0  0  0  0
  -15.3930  -18.5570  -77.3310 N   0  0  0  0  0  1  0  0  0  0  0  0
  -22.8940  -13.2940  -77.0680 O   0  0  0  0  0  1  0  0  0  0  0  0
  -17.3580  -16.1400  -80.7870 O   0  0  0  0  0  1  0  0  0  0  0  0
  -23.2340  -11.1290  -75.8800 O   0  0  0  0  0  1  0  0  0  0  0  0
  -19.6670  -11.5040  -80.1650 O   0  0  0  0  0  1  0  0  0  0  0  0
  -22.5550  -13.0100  -74.5810 O   0  0  0  0  0  1  0  0  0  0  0  0
  -17.8540  -12.8880  -78.1630 O   0  0  0  0  0  0  0  0  0  0  0  0
  -20.9740  -11.9290  -76.3850 O   0  0  0  0  0  0  0  0  0  0  0  0
  -22.4220  -12.4060  -75.9640 P   0  0  0  0  0  4  0  0  0  0  0  0
  1  3  1  0
  1 10  1  0
  1 18  1  0
  2 10  1  0
  2 11  1  0
  2 14  1  0
  3  4  1  0
  4  6  1  0
  4 16  1  0
  5  7  1  0
  5 11  1  0
  5 12  1  0
  6  8  1  0
  6 18  1  0
  7  9  1  0
  8 19  1  0
  9 10  1  0
 13 20  1  0
 15 20  1  0
 17 20  1  0
 19 20  1  0
M  END
$$$$
