5wrn_D_DCM_400
     RDKit          3D

 20 21  0  0  0  0  0  0  0  0999 V2000
   37.0830  -41.9520  -48.9800 C   0  0  0  0  0  3  0  0  0  0  0  0
   38.0280  -39.7040  -48.4540 C   0  0  0  0  0  3  0  0  0  0  0  0
   35.4550  -41.8150  -48.6420 C   0  0  0  0  0  2  0  0  0  0  0  0
   34.9600  -42.9990  -48.9380 C   0  0  0  0  0  3  0  0  0  0  0  0
   39.0520  -38.4450  -50.1360 C   0  0  0  0  0  3  0  0  0  0  0  0
   35.6950  -43.4400  -50.2100 C   0  0  0  0  0  3  0  0  0  0  0  0
   38.8060  -39.4270  -51.0840 C   0  0  0  0  0  2  0  0  0  0  0  0
   35.1430  -42.9390  -51.3810 C   0  0  0  0  0  2  0  0  0  0  0  0
   38.1520  -40.5760  -50.6580 C   0  0  0  0  0  2  0  0  0  0  0  0
   37.7400  -40.7240  -49.3540 N   0  0  0  0  0  0  0  0  0  0  0  0
   38.6680  -38.5910  -48.8580 N   0  0  0  0  0  2  0  0  0  0  0  0
   39.7110  -37.2740  -50.5140 N   0  0  0  0  0  1  0  0  0  0  0  0
   32.2990  -42.9890  -53.2510 O   0  0  0  0  0  1  0  0  0  0  0  0
   37.7380  -39.7060  -47.2630 O   0  0  0  0  0  1  0  0  0  0  0  0
   31.9050  -44.9940  -51.8370 O   0  0  0  0  0  1  0  0  0  0  0  0
   35.3640  -43.9710  -47.9250 O   0  0  0  0  0  1  0  0  0  0  0  0
   32.1840  -42.7610  -50.8430 O   0  0  0  0  0  1  0  0  0  0  0  0
   37.1570  -42.9200  -49.8800 O   0  0  0  0  0  0  0  0  0  0  0  0
   34.2070  -43.8810  -51.8740 O   0  0  0  0  0  0  0  0  0  0  0  0
   32.6410  -43.6660  -51.9460 P   0  0  0  0  0  4  0  0  0  0  0  0
  1  3  1  0
  1 10  1  0
  1 18  1  0
  2 10  1  0
  2 11  1  0
  2 14  1  0
  3  4  1  0
  4  6  1  0
  4 16  1  0
  5  7  1  0
  5 11  1  0
  5 12  1  0
  6  8  1  0
  6 18  1  0
  7  9  1  0
  8 19  1  0
  9 10  1  0
 13 20  1  0
 15 20  1  0
 17 20  1  0
 19 20  1  0
M  END
$$$$
