5x5q_B_D16_402
     RDKit          3D

 32 34  0  0  0  0  0  0  0  0999 V2000
   67.9180   46.5560   -0.5140 C   0  0  0  0  0  3  0  0  0  0  0  0
   68.0290   45.4360    0.4780 C   0  0  0  0  0  3  0  0  0  0  0  0
   68.9170   43.5790    1.9550 C   0  0  0  0  0  3  0  0  0  0  0  0
   67.6190   43.9340    2.1950 C   0  0  0  0  0  2  0  0  0  0  0  0
   67.1520   44.9570    1.3990 C   0  0  0  0  0  2  0  0  0  0  0  0
   64.1040   38.4980    0.8310 C   0  0  0  0  0  3  0  0  0  0  0  0
   64.9020   39.1710    2.9300 C   0  0  0  0  0  3  0  0  0  0  0  0
   66.0560   39.7630    2.2740 C   0  0  0  0  0  3  0  0  0  0  0  0
   66.9790   40.3850    3.0930 C   0  0  0  0  0  2  0  0  0  0  0  0
   68.0600   40.9440    2.5090 C   0  0  0  0  0  3  0  0  0  0  0  0
   68.2220   40.8840    1.1360 C   0  0  0  0  0  2  0  0  0  0  0  0
   67.2960   40.2740    0.3190 C   0  0  0  0  0  2  0  0  0  0  0  0
   66.1990   39.7050    0.9250 C   0  0  0  0  0  3  0  0  0  0  0  0
   69.0590   41.6070    3.4090 C   0  0  0  0  0  2  0  0  0  0  0  0
   66.9250   48.5690   -1.4880 C   0  0  0  0  0  3  0  0  0  0  0  0
   66.2540   48.2300   -2.7880 C   0  0  0  0  0  2  0  0  0  0  0  0
   64.0590   47.7320   -3.9210 C   0  0  0  0  0  3  0  0  0  0  0  0
   64.7730   47.8980   -2.6100 C   0  0  0  0  0  2  0  0  0  0  0  0
   62.9890   37.8070    0.1970 C   0  0  0  0  0  1  0  0  0  0  0  0
   71.1020   42.5700    2.4500 C   0  0  0  0  0  1  0  0  0  0  0  0
   66.3860   49.8000   -0.8860 C   0  0  0  0  0  3  0  0  0  0  0  0
   66.8480   47.5070   -0.5190 N   0  0  0  0  0  2  0  0  0  0  0  0
   65.2120   39.0500    0.1230 N   0  0  0  0  0  2  0  0  0  0  0  0
   69.6990   42.5850    2.6040 N   0  0  0  0  0  0  0  0  0  0  0  0
   63.9550   38.5530    2.2000 N   0  0  0  0  0  2  0  0  0  0  0  0
   68.8300   46.6830   -1.2730 O   0  0  0  0  0  1  0  0  0  0  0  0
   66.7800   50.1890    0.2170 O   0  0  0  0  0  1  0  0  0  0  0  0
   65.5270   50.4670   -1.4710 O   0  0  0  0  0  1  0  0  0  0  0  0
   64.7810   39.2150    4.1050 O   0  0  0  0  0  1  0  0  0  0  0  0
   62.8500   47.4240   -3.9210 O   0  0  0  0  0  1  0  0  0  0  0  0
   64.6660   47.8940   -5.0060 O   0  0  0  0  0  1  0  0  0  0  0  0
   69.4390   44.5560    0.7070 S   0  0  0  0  0  0  0  0  0  0  0  0
  1  2  1  0
  1 22  1  0
  1 26  1  0
  2  5  1  0
  2 32  1  0
  3  4  1  0
  3 24  1  0
  3 32  1  0
  4  5  1  0
  6 19  1  0
  6 23  1  0
  6 25  1  0
  7  8  1  0
  7 25  1  0
  7 29  1  0
  8  9  1  0
  8 13  1  0
  9 10  1  0
 10 11  1  0
 10 14  1  0
 11 12  1  0
 12 13  1  0
 13 23  1  0
 14 24  1  0
 15 16  1  0
 15 21  1  0
 15 22  1  0
 16 18  1  0
 17 18  1  0
 17 30  1  0
 17 31  1  0
 20 24  1  0
 21 27  1  0
 21 28  1  0
M  END
$$$$
