5x5q_D_D16_402
     RDKit          3D

 32 34  0  0  0  0  0  0  0  0999 V2000
    7.0640   14.7740   22.1350 C   0  0  0  0  0  3  0  0  0  0  0  0
    8.2350   14.7650   23.1210 C   0  0  0  0  0  3  0  0  0  0  0  0
   10.1990   15.3850   24.6390 C   0  0  0  0  0  3  0  0  0  0  0  0
    9.7510   14.0810   24.7490 C   0  0  0  0  0  2  0  0  0  0  0  0
    8.6780   13.7580   23.9440 C   0  0  0  0  0  2  0  0  0  0  0  0
   15.2930   10.4420   22.7930 C   0  0  0  0  0  3  0  0  0  0  0  0
   14.4870   10.8660   25.0060 C   0  0  0  0  0  3  0  0  0  0  0  0
   14.0200   12.2290   24.5820 C   0  0  0  0  0  3  0  0  0  0  0  0
   13.3750   13.0700   25.5180 C   0  0  0  0  0  2  0  0  0  0  0  0
   12.9470   14.3070   25.0790 C   0  0  0  0  0  3  0  0  0  0  0  0
   13.1550   14.7070   23.7340 C   0  0  0  0  0  2  0  0  0  0  0  0
   13.7770   13.8740   22.8100 C   0  0  0  0  0  2  0  0  0  0  0  0
   14.2120   12.6220   23.2650 C   0  0  0  0  0  3  0  0  0  0  0  0
   12.2550   15.2230   26.0800 C   0  0  0  0  0  2  0  0  0  0  0  0
    5.0110   13.7740   21.0100 C   0  0  0  0  0  3  0  0  0  0  0  0
    5.2750   13.2950   19.5780 C   0  0  0  0  0  2  0  0  0  0  0  0
    5.9480   11.2670   18.0540 C   0  0  0  0  0  3  0  0  0  0  0  0
    5.3300   11.7520   19.3680 C   0  0  0  0  0  2  0  0  0  0  0  0
   15.9680    9.4540   21.9190 C   0  0  0  0  0  1  0  0  0  0  0  0
   11.4000   17.4580   25.2890 C   0  0  0  0  0  1  0  0  0  0  0  0
    3.7990   13.1790   21.6950 C   0  0  0  0  0  3  0  0  0  0  0  0
    6.1580   13.6400   21.9280 N   0  0  0  0  0  2  0  0  0  0  0  0
   14.8620   11.7290   22.3300 N   0  0  0  0  0  2  0  0  0  0  0  0
   11.2890   16.0280   25.3450 N   0  0  0  0  0  0  0  0  0  0  0  0
   15.0990   10.0270   24.1090 N   0  0  0  0  0  2  0  0  0  0  0  0
    6.8730   15.8110   21.5340 O   0  0  0  0  0  1  0  0  0  0  0  0
    2.6710   13.6100   21.3370 O   0  0  0  0  0  1  0  0  0  0  0  0
    3.8760   12.3140   22.6470 O   0  0  0  0  0  1  0  0  0  0  0  0
   14.3490   10.4420   26.1310 O   0  0  0  0  0  1  0  0  0  0  0  0
    6.1620   12.0760   17.1050 O   0  0  0  0  0  1  0  0  0  0  0  0
    6.2590   10.0430   17.8930 O   0  0  0  0  0  1  0  0  0  0  0  0
    9.2260   16.1450   23.4610 S   0  0  0  0  0  0  0  0  0  0  0  0
  1  2  1  0
  1 22  1  0
  1 26  1  0
  2  5  1  0
  2 32  1  0
  3  4  1  0
  3 24  1  0
  3 32  1  0
  4  5  1  0
  6 19  1  0
  6 23  1  0
  6 25  1  0
  7  8  1  0
  7 25  1  0
  7 29  1  0
  8  9  1  0
  8 13  1  0
  9 10  1  0
 10 11  1  0
 10 14  1  0
 11 12  1  0
 12 13  1  0
 13 23  1  0
 14 24  1  0
 15 16  1  0
 15 21  1  0
 15 22  1  0
 16 18  1  0
 17 18  1  0
 17 30  1  0
 17 31  1  0
 20 24  1  0
 21 27  1  0
 21 28  1  0
M  END
$$$$
