5x66_D_MTX_402
     RDKit          3D

 33 35  0  0  0  0  0  0  0  0999 V2000
  116.2840  123.2580   22.5970 C   0  0  0  0  0  3  0  0  0  0  0  0
  117.3340  124.0310   23.3000 C   0  0  0  0  0  3  0  0  0  0  0  0
  117.6400  125.3200   23.0210 C   0  0  0  0  0  2  0  0  0  0  0  0
  118.7270  125.9500   23.6210 C   0  0  0  0  0  2  0  0  0  0  0  0
  119.5870  125.2910   24.4280 C   0  0  0  0  0  3  0  0  0  0  0  0
  119.3080  123.9170   24.6270 C   0  0  0  0  0  2  0  0  0  0  0  0
  118.2470  123.3170   24.0540 C   0  0  0  0  0  2  0  0  0  0  0  0
  125.0790  120.2630   23.3500 C   0  0  0  0  0  3  0  0  0  0  0  0
  124.3940  121.1400   25.3680 C   0  0  0  0  0  3  0  0  0  0  0  0
  123.7810  122.1660   24.6900 C   0  0  0  0  0  3  0  0  0  0  0  0
  122.4940  124.1310   24.7960 C   0  0  0  0  0  3  0  0  0  0  0  0
  122.5680  124.2280   23.3820 C   0  0  0  0  0  2  0  0  0  0  0  0
  123.8530  122.2430   23.2850 C   0  0  0  0  0  3  0  0  0  0  0  0
  121.7660  125.1180   25.6700 C   0  0  0  0  0  2  0  0  0  0  0  0
  113.5160  123.5230   22.6900 C   0  0  0  0  0  3  0  0  0  0  0  0
  112.5030  123.6650   21.5450 C   0  0  0  0  0  2  0  0  0  0  0  0
  110.0380  124.2780   20.6140 C   0  0  0  0  0  3  0  0  0  0  0  0
  110.9620  123.5900   21.6920 C   0  0  0  0  0  2  0  0  0  0  0  0
  121.0650  127.3140   24.8700 C   0  0  0  0  0  1  0  0  0  0  0  0
  113.3080  122.3710   23.5660 C   0  0  0  0  0  3  0  0  0  0  0  0
  114.8150  123.0640   22.2310 N   0  0  0  0  0  2  0  0  0  0  0  0
  124.5010  121.2680   22.6110 N   0  0  0  0  0  2  0  0  0  0  0  0
  120.7390  125.9190   25.0050 N   0  0  0  0  0  0  0  0  0  0  0  0
  125.0540  120.2020   24.7170 N   0  0  0  0  0  2  0  0  0  0  0  0
  123.1470  123.1040   25.4030 N   0  0  0  0  0  2  0  0  0  0  0  0
  123.2320  123.3140   22.6650 N   0  0  0  0  0  2  0  0  0  0  0  0
  125.8260  119.1990   22.7280 N   0  0  0  0  0  1  0  0  0  0  0  0
  124.2820  121.1320   26.7400 N   0  0  0  0  0  1  0  0  0  0  0  0
  116.9240  122.5050   21.8670 O   0  0  0  0  0  1  0  0  0  0  0  0
  112.7160  121.3320   23.0910 O   0  0  0  0  0  1  0  0  0  0  0  0
  113.8580  122.3820   24.8050 O   0  0  0  0  0  1  0  0  0  0  0  0
  110.5160  125.2520   19.8150 O   0  0  0  0  0  1  0  0  0  0  0  0
  108.7960  123.9600   20.4110 O   0  0  0  0  0  1  0  0  0  0  0  0
  1  2  1  0
  1 21  1  0
  1 29  1  0
  2  3  1  0
  2  7  1  0
  3  4  1  0
  4  5  1  0
  5  6  1  0
  5 23  1  0
  6  7  1  0
  8 22  1  0
  8 24  1  0
  8 27  1  0
  9 10  1  0
  9 24  1  0
  9 28  1  0
 10 13  1  0
 10 25  1  0
 11 12  1  0
 11 14  1  0
 11 25  1  0
 12 26  1  0
 13 22  1  0
 13 26  1  0
 14 23  1  0
 15 16  1  0
 15 20  1  0
 15 21  1  0
 16 18  1  0
 17 18  1  0
 17 32  1  0
 17 33  1  0
 19 23  1  0
 20 30  1  0
 20 31  1  0
M  END
$$$$
