5x66_B_MTX_402
     RDKit          3D

 33 35  0  0  0  0  0  0  0  0999 V2000
  176.7880  157.2680    0.0940 C   0  0  0  0  0  3  0  0  0  0  0  0
  177.3300  156.0210    0.6990 C   0  0  0  0  0  3  0  0  0  0  0  0
  176.6900  155.2140    1.5670 C   0  0  0  0  0  2  0  0  0  0  0  0
  177.3300  154.0200    2.0230 C   0  0  0  0  0  2  0  0  0  0  0  0
  178.6090  153.6720    1.6170 C   0  0  0  0  0  3  0  0  0  0  0  0
  179.2470  154.5330    0.7150 C   0  0  0  0  0  2  0  0  0  0  0  0
  178.6070  155.6640    0.2840 C   0  0  0  0  0  2  0  0  0  0  0  0
  173.7410  147.9920    1.2760 C   0  0  0  0  0  3  0  0  0  0  0  0
  174.7590  148.7530    3.1950 C   0  0  0  0  0  3  0  0  0  0  0  0
  175.7010  149.4110    2.4130 C   0  0  0  0  0  3  0  0  0  0  0  0
  177.5860  150.7720    2.2450 C   0  0  0  0  0  3  0  0  0  0  0  0
  177.4660  150.6640    0.8150 C   0  0  0  0  0  2  0  0  0  0  0  0
  175.5940  149.3080    0.9830 C   0  0  0  0  0  3  0  0  0  0  0  0
  178.6520  151.5640    2.9480 C   0  0  0  0  0  2  0  0  0  0  0  0
  176.6500  158.4450   -2.4430 C   0  0  0  0  0  3  0  0  0  0  0  0
  176.9240  159.8090   -1.9010 C   0  0  0  0  0  2  0  0  0  0  0  0
  176.3780  161.3670    0.0980 C   0  0  0  0  0  3  0  0  0  0  0  0
  175.8660  160.5150   -1.0810 C   0  0  0  0  0  2  0  0  0  0  0  0
  180.6570  152.2160    1.5560 C   0  0  0  0  0  1  0  0  0  0  0  0
  177.4230  158.2300   -3.7310 C   0  0  0  0  0  3  0  0  0  0  0  0
  177.0020  157.3940   -1.4460 N   0  0  0  0  0  2  0  0  0  0  0  0
  174.5900  148.6120    0.4590 N   0  0  0  0  0  2  0  0  0  0  0  0
  179.3140  152.5070    2.0520 N   0  0  0  0  0  0  0  0  0  0  0  0
  173.7630  148.0500    2.6300 N   0  0  0  0  0  2  0  0  0  0  0  0
  176.6610  150.1270    3.0040 N   0  0  0  0  0  2  0  0  0  0  0  0
  176.5200  149.9280    0.1470 N   0  0  0  0  0  2  0  0  0  0  0  0
  172.7110  147.2760    0.6800 N   0  0  0  0  0  1  0  0  0  0  0  0
  174.8190  148.8490    4.5450 N   0  0  0  0  0  1  0  0  0  0  0  0
  176.2500  158.1000    0.8320 O   0  0  0  0  0  1  0  0  0  0  0  0
  176.9190  158.4320   -4.9260 O   0  0  0  0  0  1  0  0  0  0  0  0
  178.7160  157.7920   -3.7010 O   0  0  0  0  0  1  0  0  0  0  0  0
  176.9240  162.5760   -0.1640 O   0  0  0  0  0  1  0  0  0  0  0  0
  176.2900  160.9140    1.3080 O   0  0  0  0  0  1  0  0  0  0  0  0
  1  2  1  0
  1 21  1  0
  1 29  1  0
  2  3  1  0
  2  7  1  0
  3  4  1  0
  4  5  1  0
  5  6  1  0
  5 23  1  0
  6  7  1  0
  8 22  1  0
  8 24  1  0
  8 27  1  0
  9 10  1  0
  9 24  1  0
  9 28  1  0
 10 13  1  0
 10 25  1  0
 11 12  1  0
 11 14  1  0
 11 25  1  0
 12 26  1  0
 13 22  1  0
 13 26  1  0
 14 23  1  0
 15 16  1  0
 15 20  1  0
 15 21  1  0
 16 18  1  0
 17 18  1  0
 17 32  1  0
 17 33  1  0
 19 23  1  0
 20 30  1  0
 20 31  1  0
M  END
$$$$
