5x69_E_7ZC_401
     RDKit          3D

 15 16  0  0  0  0  0  0  0  0999 V2000
  -27.2010  -27.3430  -53.6490 C   0  0  0  0  0  1  0  0  0  0  0  0
  -28.2290  -28.4660  -60.2890 C   0  0  0  0  0  2  0  0  0  0  0  0
  -29.5770  -29.0590  -58.2510 C   0  0  0  0  0  1  0  0  0  0  0  0
  -29.4930  -30.5050  -60.0470 C   0  0  0  0  0  1  0  0  0  0  0  0
  -26.6540  -27.3840  -58.3810 C   0  0  0  0  0  3  0  0  0  0  0  0
  -26.9650  -27.9630  -57.0710 C   0  0  0  0  0  2  0  0  0  0  0  0
  -26.2920  -27.5810  -55.8970 C   0  0  0  0  0  3  0  0  0  0  0  0
  -25.2850  -26.6130  -56.0080 C   0  0  0  0  0  2  0  0  0  0  0  0
  -24.9610  -26.0280  -57.2820 C   0  0  0  0  0  2  0  0  0  0  0  0
  -25.6550  -26.4340  -58.4740 C   0  0  0  0  0  3  0  0  0  0  0  0
  -26.4140  -26.6840  -60.5630 C   0  0  0  0  0  2  0  0  0  0  0  0
  -27.1470  -27.5520  -59.7350 C   0  0  0  0  0  3  0  0  0  0  0  0
  -28.7610  -29.4580  -59.3490 N   0  0  0  0  0  0  0  0  0  0  0  0
  -25.5250  -26.0140  -59.8150 N   0  0  0  0  0  2  0  0  0  0  0  0
  -26.6360  -28.1820  -54.6460 O   0  0  0  0  0  0  0  0  0  0  0  0
  1 15  1  0
  2 12  1  0
  2 13  1  0
  3 13  1  0
  4 13  1  0
  5  6  1  0
  5 10  1  0
  5 12  1  0
  6  7  1  0
  7  8  1  0
  7 15  1  0
  8  9  1  0
  9 10  1  0
 10 14  1  0
 11 12  1  0
 11 14  1  0
M  END
$$$$
