6gyj_A_FGT_502
     RDKit          3D

 24 27  0  0  0  0  0  0  0  0999 V2000
   91.4390  -12.2350   38.5150 C   0  0  0  0  0  3  0  0  0  0  0  0
   94.3380  -11.1720   36.4150 C   0  0  0  0  0  2  0  0  0  0  0  0
   95.1720  -10.0860   36.2800 C   0  0  0  0  0  2  0  0  0  0  0  0
   96.0420   -9.7990   37.3050 C   0  0  0  0  0  3  0  0  0  0  0  0
   96.0840  -10.5730   38.4390 C   0  0  0  0  0  2  0  0  0  0  0  0
   95.2310  -11.6490   38.5460 C   0  0  0  0  0  2  0  0  0  0  0  0
   93.4360  -14.1880   36.5910 C   0  0  0  0  0  3  0  0  0  0  0  0
   94.4680  -14.3830   35.7010 C   0  0  0  0  0  2  0  0  0  0  0  0
   94.3730  -15.3810   34.7540 C   0  0  0  0  0  2  0  0  0  0  0  0
   93.2460  -16.1730   34.6900 C   0  0  0  0  0  3  0  0  0  0  0  0
   92.2110  -15.9820   35.5680 C   0  0  0  0  0  2  0  0  0  0  0  0
   93.4160  -13.1340   37.6440 C   0  0  0  0  0  0  0  0  0  0  0  0
   92.3170  -14.9870   36.5100 C   0  0  0  0  0  2  0  0  0  0  0  0
   93.1390  -13.6720   39.0010 C   0  0  0  0  0  3  0  0  0  0  0  0
   93.8330  -14.5830   39.7530 C   0  0  0  0  0  2  0  0  0  0  0  0
   93.3120  -14.8890   40.9920 C   0  0  0  0  0  2  0  0  0  0  0  0
   92.1450  -14.3350   41.4830 C   0  0  0  0  0  2  0  0  0  0  0  0
   91.4470  -13.4220   40.7270 C   0  0  0  0  0  2  0  0  0  0  0  0
   91.9960  -13.1380   39.5010 C   0  0  0  0  0  3  0  0  0  0  0  0
   94.3650  -11.9810   37.5320 C   0  0  0  0  0  3  0  0  0  0  0  0
   90.4410  -11.5400   38.6440 O   0  0  0  0  0  1  0  0  0  0  0  0
   92.2070  -12.4130   37.3970 O   0  0  0  0  0  0  0  0  0  0  0  0
   96.8810   -8.7120   37.2050 O   0  0  0  0  0  1  0  0  0  0  0  0
   93.1350  -17.1660   33.7340 O   0  0  0  0  0  1  0  0  0  0  0  0
  1 19  1  0
  1 21  1  0
  1 22  1  0
  2  3  1  0
  2 20  1  0
  3  4  1  0
  4  5  1  0
  4 23  1  0
  5  6  1  0
  6 20  1  0
  7  8  1  0
  7 12  1  0
  7 13  1  0
  8  9  1  0
  9 10  1  0
 10 11  1  0
 10 24  1  0
 11 13  1  0
 12 14  1  0
 12 20  1  0
 12 22  1  0
 14 15  1  0
 14 19  1  0
 15 16  1  0
 16 17  1  0
 17 18  1  0
 18 19  1  0
M  END
$$$$
