6oju_D_D96_601
     RDKit          3D

 30 32  0  0  0  0  0  0  0  0999 V2000
  228.4200  -71.9920   86.1200 C   0  0  0  0  0  3  0  0  0  0  0  0
  227.2440  -73.8360   90.7220 C   0  0  0  0  0  2  0  0  0  0  0  0
  226.7690  -73.0970   91.7910 C   0  0  0  0  0  3  0  0  0  0  0  0
  227.3450  -71.8750   92.1220 C   0  0  0  0  0  2  0  0  0  0  0  0
  228.4130  -71.3960   91.3680 C   0  0  0  0  0  2  0  0  0  0  0  0
  225.6180  -73.6480   92.5670 C   0  0  0  0  0  3  0  0  0  0  0  0
  224.3570  -73.1250   94.6640 C   0  0  0  0  0  3  0  0  0  0  0  0
  224.8200  -72.4600   95.9230 C   0  0  0  0  0  2  0  0  0  0  0  0
  224.1460  -74.5890   94.9140 C   0  0  0  0  0  3  0  0  0  0  0  0
  224.3620  -71.0360   95.9540 C   0  0  0  0  0  2  0  0  0  0  0  0
  222.9910  -71.0000   96.5560 C   0  0  0  0  0  3  0  0  0  0  0  0
  228.4460  -71.4640   87.4080 C   0  0  0  0  0  3  0  0  0  0  0  0
  227.3650  -70.5650   87.8120 C   0  0  0  0  0  3  0  0  0  0  0  0
  226.5060  -70.9560   85.5280 C   0  0  0  0  0  3  0  0  0  0  0  0
  229.6010  -71.9630   88.0390 C   0  0  0  0  0  3  0  0  0  0  0  0
  230.2460  -72.7940   87.1260 C   0  0  0  0  0  2  0  0  0  0  0  0
  230.0320  -71.6740   89.4470 C   0  0  0  0  0  2  0  0  0  0  0  0
  228.8950  -72.1460   90.2980 C   0  0  0  0  0  3  0  0  0  0  0  0
  228.3080  -73.3620   89.9760 C   0  0  0  0  0  2  0  0  0  0  0  0
  227.4670  -71.7510   85.1740 N   0  0  0  0  0  2  0  0  0  0  0  0
  226.4710  -70.3980   86.7910 N   0  0  0  0  0  2  0  0  0  0  0  0
  229.5140  -72.7960   85.9570 N   0  0  0  0  0  2  0  0  0  0  0  0
  225.4150  -70.6060   84.6210 N   0  0  0  0  0  1  0  0  0  0  0  0
  225.3890  -72.9200   93.6560 N   0  0  0  0  0  2  0  0  0  0  0  0
  227.1940  -69.9940   88.8870 O   0  0  0  0  0  1  0  0  0  0  0  0
  224.9630  -74.6330   92.2300 O   0  0  0  0  0  1  0  0  0  0  0  0
  224.9620  -75.4030   95.3350 O   0  0  0  0  0  1  0  0  0  0  0  0
  222.8710  -74.9110   94.5760 O   0  0  0  0  0  1  0  0  0  0  0  0
  222.3690  -71.9400   97.0460 O   0  0  0  0  0  1  0  0  0  0  0  0
  222.5110  -69.7310   96.4760 O   0  0  0  0  0  1  0  0  0  0  0  0
  1 12  1  0
  1 20  1  0
  1 22  1  0
  2  3  1  0
  2 19  1  0
  3  4  1  0
  3  6  1  0
  4  5  1  0
  5 18  1  0
  6 24  1  0
  6 26  1  0
  7  8  1  0
  7  9  1  0
  7 24  1  0
  8 10  1  0
  9 27  1  0
  9 28  1  0
 10 11  1  0
 11 29  1  0
 11 30  1  0
 12 13  1  0
 12 15  1  0
 13 21  1  0
 13 25  1  0
 14 20  1  0
 14 21  1  0
 14 23  1  0
 15 16  1  0
 15 17  1  0
 16 22  1  0
 17 18  1  0
 18 19  1  0
M  END
$$$$
