6oju_B_D96_601
     RDKit          3D

 30 32  0  0  0  0  0  0  0  0999 V2000
  239.0390 -103.4820   75.2700 C   0  0  0  0  0  3  0  0  0  0  0  0
  240.0050 -100.1710   79.1590 C   0  0  0  0  0  2  0  0  0  0  0  0
  241.1770  -99.6160   79.6470 C   0  0  0  0  0  3  0  0  0  0  0  0
  242.3410 -100.3750   79.7170 C   0  0  0  0  0  2  0  0  0  0  0  0
  242.3270 -101.7010   79.3000 C   0  0  0  0  0  2  0  0  0  0  0  0
  241.1670  -98.1820   80.0780 C   0  0  0  0  0  3  0  0  0  0  0  0
  242.8040  -96.4180   80.7610 C   0  0  0  0  0  3  0  0  0  0  0  0
  244.2170  -96.4990   81.2570 C   0  0  0  0  0  2  0  0  0  0  0  0
  241.9010  -95.8970   81.8420 C   0  0  0  0  0  3  0  0  0  0  0  0
  244.9940  -97.4090   80.3530 C   0  0  0  0  0  2  0  0  0  0  0  0
  246.3310  -96.7890   80.0800 C   0  0  0  0  0  3  0  0  0  0  0  0
  240.2210 -103.2250   75.9560 C   0  0  0  0  0  3  0  0  0  0  0  0
  241.2990 -102.5390   75.2540 C   0  0  0  0  0  3  0  0  0  0  0  0
  239.7290 -102.5410   73.3470 C   0  0  0  0  0  3  0  0  0  0  0  0
  240.0690 -103.7380   77.2550 C   0  0  0  0  0  3  0  0  0  0  0  0
  238.7910 -104.2890   77.3330 C   0  0  0  0  0  2  0  0  0  0  0  0
  241.0880 -103.6790   78.3550 C   0  0  0  0  0  2  0  0  0  0  0  0
  241.1480 -102.2570   78.8160 C   0  0  0  0  0  3  0  0  0  0  0  0
  239.9920 -101.4920   78.7450 C   0  0  0  0  0  2  0  0  0  0  0  0
  238.7770 -103.1480   73.9760 N   0  0  0  0  0  2  0  0  0  0  0  0
  240.9290 -102.2550   73.9680 N   0  0  0  0  0  2  0  0  0  0  0  0
  238.1760 -104.1270   76.1110 N   0  0  0  0  0  2  0  0  0  0  0  0
  239.5790 -102.1280   71.9560 N   0  0  0  0  0  1  0  0  0  0  0  0
  242.4010  -97.7540   80.3340 N   0  0  0  0  0  2  0  0  0  0  0  0
  242.4090 -102.2250   75.6770 O   0  0  0  0  0  1  0  0  0  0  0  0
  240.1610  -97.4790   80.1610 O   0  0  0  0  0  1  0  0  0  0  0  0
  241.3090  -96.5530   82.6920 O   0  0  0  0  0  1  0  0  0  0  0  0
  241.8110  -94.5440   81.7430 O   0  0  0  0  0  1  0  0  0  0  0  0
  246.7570  -95.7310   80.5260 O   0  0  0  0  0  1  0  0  0  0  0  0
  247.0370  -97.5790   79.2350 O   0  0  0  0  0  1  0  0  0  0  0  0
  1 12  1  0
  1 20  1  0
  1 22  1  0
  2  3  1  0
  2 19  1  0
  3  4  1  0
  3  6  1  0
  4  5  1  0
  5 18  1  0
  6 24  1  0
  6 26  1  0
  7  8  1  0
  7  9  1  0
  7 24  1  0
  8 10  1  0
  9 27  1  0
  9 28  1  0
 10 11  1  0
 11 29  1  0
 11 30  1  0
 12 13  1  0
 12 15  1  0
 13 21  1  0
 13 25  1  0
 14 20  1  0
 14 21  1  0
 14 23  1  0
 15 16  1  0
 15 17  1  0
 16 22  1  0
 17 18  1  0
 18 19  1  0
M  END
$$$$
