6ojv_B_2XB_601
     RDKit          3D

 30 32  0  0  0  0  0  0  0  0999 V2000
  120.1180   28.8970  259.4330 C   0  0  0  0  0  2  0  0  0  0  0  0
  121.0550   28.5690  261.6550 C   0  0  0  0  0  2  0  0  0  0  0  0
  119.2600   27.8040  259.6330 C   0  0  0  0  0  2  0  0  0  0  0  0
  120.1930   27.4710  261.8570 C   0  0  0  0  0  2  0  0  0  0  0  0
  121.5830   31.8010  258.0310 C   0  0  0  0  0  2  0  0  0  0  0  0
  121.9280   30.4770  260.2000 C   0  0  0  0  0  2  0  0  0  0  0  0
  118.3600   25.9130  261.0400 C   0  0  0  0  0  3  0  0  0  0  0  0
  117.8950   33.9300  259.4180 C   0  0  0  0  0  3  0  0  0  0  0  0
  121.0230   29.2830  260.4400 C   0  0  0  0  0  3  0  0  0  0  0  0
  119.2870   27.0790  260.8440 C   0  0  0  0  0  3  0  0  0  0  0  0
  121.2160   31.4650  259.3110 C   0  0  0  0  0  3  0  0  0  0  0  0
  119.1180   32.3460  260.7680 C   0  0  0  0  0  3  0  0  0  0  0  0
  119.7350   32.9790  258.5040 C   0  0  0  0  0  3  0  0  0  0  0  0
  120.0290   32.2190  259.6070 C   0  0  0  0  0  3  0  0  0  0  0  0
  117.6780   24.1200  262.6740 C   0  0  0  0  0  3  0  0  0  0  0  0
  118.3640   22.7680  262.3420 C   0  0  0  0  0  2  0  0  0  0  0  0
  117.5560   21.8190  261.4270 C   0  0  0  0  0  2  0  0  0  0  0  0
  117.4340   22.2860  259.9740 C   0  0  0  0  0  3  0  0  0  0  0  0
  117.2280   24.3160  264.1270 C   0  0  0  0  0  3  0  0  0  0  0  0
  116.7830   34.7390  259.5010 N   0  0  0  0  0  1  0  0  0  0  0  0
  118.6690   33.8560  258.3690 N   0  0  0  0  0  2  0  0  0  0  0  0
  120.6800   32.7250  257.5440 N   0  0  0  0  0  2  0  0  0  0  0  0
  118.0920   33.2040  260.6030 N   0  0  0  0  0  2  0  0  0  0  0  0
  118.4560   25.2760  262.2200 N   0  0  0  0  0  2  0  0  0  0  0  0
  117.5640   25.6010  260.1550 O   0  0  0  0  0  1  0  0  0  0  0  0
  119.2730   31.7220  261.8160 O   0  0  0  0  0  1  0  0  0  0  0  0
  118.2890   22.1070  259.1090 O   0  0  0  0  0  1  0  0  0  0  0  0
  116.2510   22.9270  259.7440 O   0  0  0  0  0  1  0  0  0  0  0  0
  115.8860   24.3150  264.3860 O   0  0  0  0  0  1  0  0  0  0  0  0
  118.0480   24.4690  265.0310 O   0  0  0  0  0  1  0  0  0  0  0  0
  1  3  1  0
  1  9  1  0
  2  4  1  0
  2  9  1  0
  3 10  1  0
  4 10  1  0
  5 11  1  0
  5 22  1  0
  6  9  1  0
  6 11  1  0
  7 10  1  0
  7 24  1  0
  7 25  1  0
  8 20  1  0
  8 21  1  0
  8 23  1  0
 11 14  1  0
 12 14  1  0
 12 23  1  0
 12 26  1  0
 13 14  1  0
 13 21  1  0
 13 22  1  0
 15 16  1  0
 15 19  1  0
 15 24  1  0
 16 17  1  0
 17 18  1  0
 18 27  1  0
 18 28  1  0
 19 29  1  0
 19 30  1  0
M  END
$$$$
