6r2e_B_FFO_403
     RDKit          3D

 34 36  0  0  0  0  0  0  0  0999 V2000
   20.1210   -7.9060   -3.5350 C   0  0  0  0  0  3  0  0  0  0  0  0
   20.8280   -7.6260   -4.8330 C   0  0  0  0  0  3  0  0  0  0  0  0
   20.8970   -8.5450   -5.8790 C   0  0  0  0  0  2  0  0  0  0  0  0
   21.5160   -8.2140   -7.0640 C   0  0  0  0  0  2  0  0  0  0  0  0
   22.0880   -6.9510   -7.2140 C   0  0  0  0  0  3  0  0  0  0  0  0
   22.0310   -6.0400   -6.1690 C   0  0  0  0  0  2  0  0  0  0  0  0
   21.3920   -6.3670   -4.9970 C   0  0  0  0  0  2  0  0  0  0  0  0
   26.4810   -4.7690   -5.0010 C   0  0  0  0  0  3  0  0  0  0  0  0
   26.0600   -6.4450   -6.6280 C   0  0  0  0  0  3  0  0  0  0  0  0
   25.7350   -5.4800   -7.5860 C   0  0  0  0  0  3  0  0  0  0  0  0
   25.8570   -6.7240   -9.7840 C   0  0  0  0  0  2  0  0  0  0  0  0
   24.2330   -4.8790   -9.4150 C   0  0  0  0  0  3  0  0  0  0  0  0
   24.5880   -3.3960   -9.2470 C   0  0  0  0  0  2  0  0  0  0  0  0
   25.7920   -4.1200   -7.1960 C   0  0  0  0  0  3  0  0  0  0  0  0
   22.8940   -5.1710   -8.7200 C   0  0  0  0  0  2  0  0  0  0  0  0
   18.4740   -9.3650   -2.4980 C   0  0  0  0  0  3  0  0  0  0  0  0
   17.1730   -9.0350   -3.2390 C   0  0  0  0  0  2  0  0  0  0  0  0
   14.6670   -8.9550   -3.1340 C   0  0  0  0  0  3  0  0  0  0  0  0
   15.9430   -9.4000   -2.4500 C   0  0  0  0  0  2  0  0  0  0  0  0
   18.5990  -10.8500   -2.1250 C   0  0  0  0  0  3  0  0  0  0  0  0
   19.5840   -9.1170   -3.3940 N   0  0  0  0  0  2  0  0  0  0  0  0
   26.1820   -3.7940   -5.9120 N   0  0  0  0  0  2  0  0  0  0  0  0
   22.7290   -6.5680   -8.3640 N   0  0  0  0  0  2  0  0  0  0  0  0
   26.4380   -6.0690   -5.3290 N   0  0  0  0  0  2  0  0  0  0  0  0
   25.3260   -5.7740   -8.9280 N   0  0  0  0  0  0  0  0  0  0  0  0
   25.4470   -3.1450   -8.0930 N   0  0  0  0  0  2  0  0  0  0  0  0
   26.8630   -4.3740   -3.7820 N   0  0  0  0  0  1  0  0  0  0  0  0
   19.9850   -7.0280   -2.6840 O   0  0  0  0  0  1  0  0  0  0  0  0
   18.9290  -11.6260   -3.0550 O   0  0  0  0  0  1  0  0  0  0  0  0
   18.4010  -11.1740   -0.9350 O   0  0  0  0  0  1  0  0  0  0  0  0
   26.0260   -7.6480   -6.8970 O   0  0  0  0  0  1  0  0  0  0  0  0
   25.3830   -7.8600   -9.9170 O   0  0  0  0  0  1  0  0  0  0  0  0
   14.7580   -7.9810   -3.9220 O   0  0  0  0  0  1  0  0  0  0  0  0
   13.5850   -9.5890   -2.8940 O   0  0  0  0  0  1  0  0  0  0  0  0
  1  2  1  0
  1 21  1  0
  1 28  1  0
  2  3  1  0
  2  7  1  0
  3  4  1  0
  4  5  1  0
  5  6  1  0
  5 23  1  0
  6  7  1  0
  8 22  1  0
  8 24  1  0
  8 27  1  0
  9 10  1  0
  9 24  1  0
  9 31  1  0
 10 14  1  0
 10 25  1  0
 11 25  1  0
 11 32  1  0
 12 13  1  0
 12 15  1  0
 12 25  1  0
 13 26  1  0
 14 22  1  0
 14 26  1  0
 15 23  1  0
 16 17  1  0
 16 20  1  0
 16 21  1  0
 17 19  1  0
 18 19  1  0
 18 33  1  0
 18 34  1  0
 20 29  1  0
 20 30  1  0
M  END
$$$$
