6r2e_D_FFO_403
     RDKit          3D

 34 36  0  0  0  0  0  0  0  0999 V2000
  119.9510  -75.7980  -13.9140 C   0  0  0  0  0  3  0  0  0  0  0  0
  119.2100  -76.0540  -15.2020 C   0  0  0  0  0  3  0  0  0  0  0  0
  119.1140  -75.1000  -16.2200 C   0  0  0  0  0  2  0  0  0  0  0  0
  118.4720  -75.4020  -17.4080 C   0  0  0  0  0  2  0  0  0  0  0  0
  117.9160  -76.6750  -17.6080 C   0  0  0  0  0  3  0  0  0  0  0  0
  118.0350  -77.6280  -16.6020 C   0  0  0  0  0  2  0  0  0  0  0  0
  118.6810  -77.3240  -15.4210 C   0  0  0  0  0  2  0  0  0  0  0  0
  113.5580  -78.8520  -15.4460 C   0  0  0  0  0  3  0  0  0  0  0  0
  113.8610  -77.2050  -17.1170 C   0  0  0  0  0  3  0  0  0  0  0  0
  114.2340  -78.1510  -18.0590 C   0  0  0  0  0  3  0  0  0  0  0  0
  113.9610  -76.9380  -20.2890 C   0  0  0  0  0  2  0  0  0  0  0  0
  115.7140  -78.6870  -19.8740 C   0  0  0  0  0  3  0  0  0  0  0  0
  115.3480  -80.1700  -19.7850 C   0  0  0  0  0  2  0  0  0  0  0  0
  114.2720  -79.5010  -17.6470 C   0  0  0  0  0  3  0  0  0  0  0  0
  117.0210  -78.4310  -19.1020 C   0  0  0  0  0  2  0  0  0  0  0  0
  121.6170  -74.3040  -12.9400 C   0  0  0  0  0  3  0  0  0  0  0  0
  122.8900  -74.6980  -13.7050 C   0  0  0  0  0  2  0  0  0  0  0  0
  125.4680  -74.4910  -13.6720 C   0  0  0  0  0  3  0  0  0  0  0  0
  124.1120  -73.8620  -13.3730 C   0  0  0  0  0  2  0  0  0  0  0  0
  121.4770  -72.8290  -12.5140 C   0  0  0  0  0  3  0  0  0  0  0  0
  120.4370  -74.5670  -13.7480 N   0  0  0  0  0  2  0  0  0  0  0  0
  113.8990  -79.8240  -16.3440 N   0  0  0  0  0  2  0  0  0  0  0  0
  117.2590  -77.0390  -18.7640 N   0  0  0  0  0  2  0  0  0  0  0  0
  113.5250  -77.5660  -15.8010 N   0  0  0  0  0  2  0  0  0  0  0  0
  114.5830  -77.8390  -19.4090 N   0  0  0  0  0  0  0  0  0  0  0  0
  114.6910  -80.4790  -18.5230 N   0  0  0  0  0  2  0  0  0  0  0  0
  113.2500  -79.2260  -14.2070 N   0  0  0  0  0  1  0  0  0  0  0  0
  120.2110  -76.7170  -13.1260 O   0  0  0  0  0  1  0  0  0  0  0  0
  121.0090  -72.0180  -13.3590 O   0  0  0  0  0  1  0  0  0  0  0  0
  121.7330  -72.5610  -11.3200 O   0  0  0  0  0  1  0  0  0  0  0  0
  113.7790  -76.0180  -17.4180 O   0  0  0  0  0  1  0  0  0  0  0  0
  114.2230  -75.7040  -20.3600 O   0  0  0  0  0  1  0  0  0  0  0  0
  125.4190  -75.6270  -14.2130 O   0  0  0  0  0  1  0  0  0  0  0  0
  126.5900  -73.8400  -13.3810 O   0  0  0  0  0  1  0  0  0  0  0  0
  1  2  1  0
  1 21  1  0
  1 28  1  0
  2  3  1  0
  2  7  1  0
  3  4  1  0
  4  5  1  0
  5  6  1  0
  5 23  1  0
  6  7  1  0
  8 22  1  0
  8 24  1  0
  8 27  1  0
  9 10  1  0
  9 24  1  0
  9 31  1  0
 10 14  1  0
 10 25  1  0
 11 25  1  0
 11 32  1  0
 12 13  1  0
 12 15  1  0
 12 25  1  0
 13 26  1  0
 14 22  1  0
 14 26  1  0
 15 23  1  0
 16 17  1  0
 16 20  1  0
 16 21  1  0
 17 19  1  0
 18 19  1  0
 18 33  1  0
 18 34  1  0
 20 29  1  0
 20 30  1  0
M  END
$$$$
