6y08_A_08D_502
     RDKit          3D

 17 18  0  0  0  0  0  0  0  0999 V2000
   16.1570  -22.2790    6.8260 C   0  0  0  0  0  3  0  0  0  0  0  0
   16.8160  -21.5630    1.1770 C   0  0  0  0  0  3  0  0  0  0  0  0
   15.9030  -20.5260    0.8690 C   0  0  0  0  0  2  0  0  0  0  0  0
   15.2020  -21.0460   -0.1890 C   0  0  0  0  0  3  0  0  0  0  0  0
   16.7600  -23.4940    6.5800 C   0  0  0  0  0  2  0  0  0  0  0  0
   14.0890  -20.5820   -1.0190 C   0  0  0  0  0  1  0  0  0  0  0  0
   17.4370  -23.6980    5.3950 C   0  0  0  0  0  2  0  0  0  0  0  0
   17.4990  -22.6660    4.4890 C   0  0  0  0  0  3  0  0  0  0  0  0
   16.9030  -21.4470    4.6980 C   0  0  0  0  0  2  0  0  0  0  0  0
   16.2320  -21.2650    5.8870 C   0  0  0  0  0  2  0  0  0  0  0  0
   17.7920  -21.4890    2.1820 N   0  0  0  0  0  2  0  0  0  0  0  0
   16.6850  -22.6200    0.3720 N   0  0  0  0  0  2  0  0  0  0  0  0
   15.4910  -22.0750    8.0390 N   0  0  0  0  0  1  0  0  0  0  0  0
   17.7280  -24.0990    2.3300 O   0  0  0  0  0  1  0  0  0  0  0  0
   19.7520  -22.8430    3.1440 O   0  0  0  0  0  1  0  0  0  0  0  0
   15.6550  -22.2880   -0.4980 O   0  0  0  0  0  0  0  0  0  0  0  0
   18.3280  -22.9240    2.9420 S   0  0  0  0  0  4  0  0  0  0  0  0
  1  5  1  0
  1 10  1  0
  1 13  1  0
  2  3  1  0
  2 11  1  0
  2 12  1  0
  3  4  1  0
  4  6  1  0
  4 16  1  0
  5  7  1  0
  7  8  1  0
  8  9  1  0
  8 17  1  0
  9 10  1  0
 11 17  1  0
 12 16  1  0
 14 17  1  0
 15 17  1  0
M  END
$$$$
