6zxo_F_D16_401
     RDKit          3D

 32 34  0  0  0  0  0  0  0  0999 V2000
  -41.5540  -20.6340   81.2510 C   0  0  0  0  0  3  0  0  0  0  0  0
  -40.3350  -19.8570   80.8900 C   0  0  0  0  0  3  0  0  0  0  0  0
  -38.1360  -19.3530   80.0340 C   0  0  0  0  0  3  0  0  0  0  0  0
  -38.7250  -18.2100   80.5530 C   0  0  0  0  0  2  0  0  0  0  0  0
  -39.9950  -18.5100   81.0450 C   0  0  0  0  0  2  0  0  0  0  0  0
  -38.6460  -21.8380   73.3670 C   0  0  0  0  0  3  0  0  0  0  0  0
  -39.0000  -20.2210   75.0250 C   0  0  0  0  0  3  0  0  0  0  0  0
  -37.9750  -20.8590   75.8620 C   0  0  0  0  0  3  0  0  0  0  0  0
  -37.6060  -20.4030   77.1190 C   0  0  0  0  0  2  0  0  0  0  0  0
  -36.6190  -21.0870   77.8250 C   0  0  0  0  0  3  0  0  0  0  0  0
  -36.0030  -22.2170   77.2870 C   0  0  0  0  0  2  0  0  0  0  0  0
  -36.3460  -22.7060   76.0290 C   0  0  0  0  0  2  0  0  0  0  0  0
  -37.3240  -22.0550   75.2900 C   0  0  0  0  0  3  0  0  0  0  0  0
  -36.2100  -20.5980   79.1950 C   0  0  0  0  0  2  0  0  0  0  0  0
  -43.4100  -21.0270   82.7640 C   0  0  0  0  0  3  0  0  0  0  0  0
  -43.1690  -21.6080   84.1520 C   0  0  0  0  0  2  0  0  0  0  0  0
  -43.6970  -23.4440   85.7300 C   0  0  0  0  0  3  0  0  0  0  0  0
  -44.0120  -22.8570   84.3750 C   0  0  0  0  0  2  0  0  0  0  0  0
  -39.0120  -22.3720   72.0080 C   0  0  0  0  0  1  0  0  0  0  0  0
  -36.2300  -18.0780   79.1900 C   0  0  0  0  0  1  0  0  0  0  0  0
  -44.6430  -20.1720   82.7870 C   0  0  0  0  0  3  0  0  0  0  0  0
  -42.2480  -20.2770   82.3290 N   0  0  0  0  0  2  0  0  0  0  0  0
  -37.6970  -22.4760   74.0760 N   0  0  0  0  0  2  0  0  0  0  0  0
  -36.8860  -19.3430   79.4850 N   0  0  0  0  0  0  0  0  0  0  0  0
  -39.2900  -20.7330   73.8260 N   0  0  0  0  0  2  0  0  0  0  0  0
  -41.8890  -21.5770   80.5540 O   0  0  0  0  0  1  0  0  0  0  0  0
  -44.5930  -19.0390   82.2630 O   0  0  0  0  0  1  0  0  0  0  0  0
  -45.6730  -20.6260   83.3310 O   0  0  0  0  0  1  0  0  0  0  0  0
  -39.6060  -19.1930   75.4390 O   0  0  0  0  0  1  0  0  0  0  0  0
  -42.5100  -23.7360   85.9920 O   0  0  0  0  0  1  0  0  0  0  0  0
  -44.6340  -23.6160   86.5400 O   0  0  0  0  0  1  0  0  0  0  0  0
  -39.0870  -20.7970   80.1260 S   0  0  0  0  0  0  0  0  0  0  0  0
  1  2  1  0
  1 22  1  0
  1 26  1  0
  2  5  1  0
  2 32  1  0
  3  4  1  0
  3 24  1  0
  3 32  1  0
  4  5  1  0
  6 19  1  0
  6 23  1  0
  6 25  1  0
  7  8  1  0
  7 25  1  0
  7 29  1  0
  8  9  1  0
  8 13  1  0
  9 10  1  0
 10 11  1  0
 10 14  1  0
 11 12  1  0
 12 13  1  0
 13 23  1  0
 14 24  1  0
 15 16  1  0
 15 21  1  0
 15 22  1  0
 16 18  1  0
 17 18  1  0
 17 30  1  0
 17 31  1  0
 20 24  1  0
 21 27  1  0
 21 28  1  0
M  END
$$$$
