3b3f_A_SAH_481
     RDKit          3D

 26 28  0  0  0  0  0  0  0  0999 V2000
   53.3190   34.6080  136.4870 C   0  0  0  0  0  3  0  0  0  0  0  0
   49.5520   38.3500  130.2140 C   0  0  0  0  0  3  0  0  0  0  0  0
   50.2540   42.5290  128.5770 C   0  0  0  0  0  2  0  0  0  0  0  0
   48.4390   37.3130  130.3440 C   0  0  0  0  0  3  0  0  0  0  0  0
   48.9150   36.5550  131.5820 C   0  0  0  0  0  3  0  0  0  0  0  0
   50.0390   40.1580  128.5050 C   0  0  0  0  0  3  0  0  0  0  0  0
   50.4340   36.7090  131.6060 C   0  0  0  0  0  3  0  0  0  0  0  0
   50.3050   40.1740  127.1520 C   0  0  0  0  0  3  0  0  0  0  0  0
   51.2240   35.4480  131.2830 C   0  0  0  0  0  2  0  0  0  0  0  0
   50.5480   41.3840  126.5070 C   0  0  0  0  0  3  0  0  0  0  0  0
   50.0100   38.0660  127.7300 C   0  0  0  0  0  2  0  0  0  0  0  0
   52.6660   35.8370  135.8880 C   0  0  0  0  0  3  0  0  0  0  0  0
   51.6660   35.3560  134.8440 C   0  0  0  0  0  2  0  0  0  0  0  0
   52.2800   34.7220  133.6040 C   0  0  0  0  0  2  0  0  0  0  0  0
   53.7310   36.7300  135.3100 N   0  0  0  0  0  1  0  0  0  0  0  0
   50.5390   42.5570  127.2250 N   0  0  0  0  0  2  0  0  0  0  0  0
   50.0050   41.3220  129.2110 N   0  0  0  0  0  2  0  0  0  0  0  0
   50.8200   41.4090  125.1970 N   0  0  0  0  0  1  0  0  0  0  0  0
   50.2810   38.8870  126.7070 N   0  0  0  0  0  2  0  0  0  0  0  0
   49.8360   38.8400  128.8530 N   0  0  0  0  0  0  0  0  0  0  0  0
   54.5210   34.4150  136.2120 O   0  0  0  0  0  1  0  0  0  0  0  0
   47.1840   37.9900  130.4730 O   0  0  0  0  0  1  0  0  0  0  0  0
   48.4590   37.2020  132.7530 O   0  0  0  0  0  1  0  0  0  0  0  0
   50.7340   37.6860  130.6520 O   0  0  0  0  0  0  0  0  0  0  0  0
   52.6710   33.8160  137.2130 O   0  0  0  0  0  1  0  0  0  0  0  0
   50.9860   34.1220  132.4930 S   0  0  0  0  0  0  0  0  0  0  0  0
  1 12  1  0
  1 21  1  0
  1 25  1  0
  2  4  1  0
  2 20  1  0
  2 24  1  0
  3 16  1  0
  3 17  1  0
  4  5  1  0
  4 22  1  0
  5  7  1  0
  5 23  1  0
  6  8  1  0
  6 17  1  0
  6 20  1  0
  7  9  1  0
  7 24  1  0
  8 10  1  0
  8 19  1  0
  9 26  1  0
 10 16  1  0
 10 18  1  0
 11 19  1  0
 11 20  1  0
 12 13  1  0
 12 15  1  0
 13 14  1  0
 14 26  1  0
M  END
$$$$
