3b3f_D_SAH_481
     RDKit          3D

 26 28  0  0  0  0  0  0  0  0999 V2000
  -15.6040  -35.2850   13.8650 C   0  0  0  0  0  3  0  0  0  0  0  0
  -14.6240  -27.2500   12.1320 C   0  0  0  0  0  3  0  0  0  0  0  0
  -16.9320  -24.7990    9.1920 C   0  0  0  0  0  2  0  0  0  0  0  0
  -13.2420  -27.3670   12.7680 C   0  0  0  0  0  3  0  0  0  0  0  0
  -13.1650  -28.8560   13.0880 C   0  0  0  0  0  3  0  0  0  0  0  0
  -16.0130  -25.3280   11.3160 C   0  0  0  0  0  3  0  0  0  0  0  0
  -14.6210  -29.2770   13.2780 C   0  0  0  0  0  3  0  0  0  0  0  0
  -16.5600  -24.1700   11.8600 C   0  0  0  0  0  3  0  0  0  0  0  0
  -15.0060  -29.5960   14.7180 C   0  0  0  0  0  2  0  0  0  0  0  0
  -17.3080  -23.3120   11.0430 C   0  0  0  0  0  3  0  0  0  0  0  0
  -15.4600  -25.2260   13.4490 C   0  0  0  0  0  2  0  0  0  0  0  0
  -15.5830  -34.0170   13.0580 C   0  0  0  0  0  3  0  0  0  0  0  0
  -15.4330  -32.9500   14.1210 C   0  0  0  0  0  2  0  0  0  0  0  0
  -14.2710  -32.0490   13.9530 C   0  0  0  0  0  2  0  0  0  0  0  0
  -16.9720  -33.8700   12.5510 N   0  0  0  0  0  1  0  0  0  0  0  0
  -17.4720  -23.6440    9.7330 N   0  0  0  0  0  2  0  0  0  0  0  0
  -16.1820  -25.6290   10.0020 N   0  0  0  0  0  2  0  0  0  0  0  0
  -17.8680  -22.1960   11.5070 N   0  0  0  0  0  1  0  0  0  0  0  0
  -16.2140  -24.1350   13.1620 N   0  0  0  0  0  2  0  0  0  0  0  0
  -15.3190  -25.9620   12.3110 N   0  0  0  0  0  0  0  0  0  0  0  0
  -14.6190  -36.0200   13.9920 O   0  0  0  0  0  1  0  0  0  0  0  0
  -12.2670  -26.8470   11.8850 O   0  0  0  0  0  1  0  0  0  0  0  0
  -12.7080  -29.6290   11.9980 O   0  0  0  0  0  1  0  0  0  0  0  0
  -15.4120  -28.1900   12.8240 O   0  0  0  0  0  0  0  0  0  0  0  0
  -16.6590  -35.5400   14.4600 O   0  0  0  0  0  1  0  0  0  0  0  0
  -14.1370  -31.0150   15.4290 S   0  0  0  0  0  0  0  0  0  0  0  0
  1 12  1  0
  1 21  1  0
  1 25  1  0
  2  4  1  0
  2 20  1  0
  2 24  1  0
  3 16  1  0
  3 17  1  0
  4  5  1  0
  4 22  1  0
  5  7  1  0
  5 23  1  0
  6  8  1  0
  6 17  1  0
  6 20  1  0
  7  9  1  0
  7 24  1  0
  8 10  1  0
  8 19  1  0
  9 26  1  0
 10 16  1  0
 10 18  1  0
 11 19  1  0
 11 20  1  0
 12 13  1  0
 12 15  1  0
 13 14  1  0
 14 26  1  0
M  END
$$$$
