5dwq_A_SFG_501
     RDKit          3D

 27 29  0  0  0  0  0  0  0  0999 V2000
   15.7610   14.0570   90.2700 C   0  0  0  0  0  3  0  0  0  0  0  0
   14.7910   21.9960   91.6080 C   0  0  0  0  0  3  0  0  0  0  0  0
   16.9750   24.6820   94.4350 C   0  0  0  0  0  2  0  0  0  0  0  0
   13.4000   21.8570   91.0110 C   0  0  0  0  0  3  0  0  0  0  0  0
   13.3260   20.3740   90.7030 C   0  0  0  0  0  3  0  0  0  0  0  0
   16.0390   23.9990   92.3870 C   0  0  0  0  0  3  0  0  0  0  0  0
   14.7690   19.9230   90.5220 C   0  0  0  0  0  3  0  0  0  0  0  0
   16.5010   25.2470   91.7710 C   0  0  0  0  0  3  0  0  0  0  0  0
   15.1420   19.5810   89.0820 C   0  0  0  0  0  2  0  0  0  0  0  0
   17.2370   26.1950   92.6380 C   0  0  0  0  0  3  0  0  0  0  0  0
   15.4560   24.0410   90.2900 C   0  0  0  0  0  2  0  0  0  0  0  0
   15.5870   15.2460   91.1620 C   0  0  0  0  0  3  0  0  0  0  0  0
   14.7800   16.3250   90.4420 C   0  0  0  0  0  2  0  0  0  0  0  0
   14.7600   18.1570   88.6910 C   0  0  0  0  0  3  0  0  0  0  0  0
   15.6070   17.1230   89.4350 C   0  0  0  0  0  2  0  0  0  0  0  0
   16.8890   15.7430   91.5750 N   0  0  0  0  0  1  0  0  0  0  0  0
   17.4310   25.8500   93.9280 N   0  0  0  0  0  2  0  0  0  0  0  0
   16.2980   23.7750   93.6980 N   0  0  0  0  0  2  0  0  0  0  0  0
   17.6940   27.3680   92.1480 N   0  0  0  0  0  1  0  0  0  0  0  0
   16.1100   25.2100   90.4860 N   0  0  0  0  0  2  0  0  0  0  0  0
   15.4100   23.3280   91.4250 N   0  0  0  0  0  0  0  0  0  0  0  0
   14.9730   18.0100   87.2650 N   0  0  0  0  0  1  0  0  0  0  0  0
   14.7570   13.3540   90.0340 O   0  0  0  0  0  1  0  0  0  0  0  0
   12.3920   22.2870   91.9280 O   0  0  0  0  0  1  0  0  0  0  0  0
   12.7310   19.6670   91.7940 O   0  0  0  0  0  1  0  0  0  0  0  0
   15.5850   21.0080   90.9560 O   0  0  0  0  0  0  0  0  0  0  0  0
   16.8960   13.8140   89.7930 O   0  0  0  0  0  1  0  0  0  0  0  0
  1 12  1  0
  1 23  1  0
  1 27  1  0
  2  4  1  0
  2 21  1  0
  2 26  1  0
  3 17  1  0
  3 18  1  0
  4  5  1  0
  4 24  1  0
  5  7  1  0
  5 25  1  0
  6  8  1  0
  6 18  1  0
  6 21  1  0
  7  9  1  0
  7 26  1  0
  8 10  1  0
  8 20  1  0
  9 14  1  0
 10 17  1  0
 10 19  1  0
 11 20  1  0
 11 21  1  0
 12 13  1  0
 12 16  1  0
 13 15  1  0
 14 15  1  0
 14 22  1  0
M  END
$$$$
