5dx8_C_SFG_501
     RDKit          3D

 27 29  0  0  0  0  0  0  0  0999 V2000
   15.5000   14.2020   89.5290 C   0  0  0  0  0  3  0  0  0  0  0  0
   14.5430   22.1170   90.9130 C   0  0  0  0  0  3  0  0  0  0  0  0
   16.6980   24.7270   93.8290 C   0  0  0  0  0  2  0  0  0  0  0  0
   13.1390   22.0080   90.3610 C   0  0  0  0  0  3  0  0  0  0  0  0
   13.0770   20.5130   90.0980 C   0  0  0  0  0  3  0  0  0  0  0  0
   15.7410   24.0960   91.7660 C   0  0  0  0  0  3  0  0  0  0  0  0
   14.5070   20.0540   89.8670 C   0  0  0  0  0  3  0  0  0  0  0  0
   16.1680   25.3600   91.1740 C   0  0  0  0  0  3  0  0  0  0  0  0
   14.7910   19.6770   88.4270 C   0  0  0  0  0  2  0  0  0  0  0  0
   16.8810   26.2960   92.0530 C   0  0  0  0  0  3  0  0  0  0  0  0
   15.1460   24.1980   89.6600 C   0  0  0  0  0  2  0  0  0  0  0  0
   15.3610   15.3780   90.4430 C   0  0  0  0  0  3  0  0  0  0  0  0
   14.4800   16.4300   89.7750 C   0  0  0  0  0  2  0  0  0  0  0  0
   14.4630   18.2520   88.0350 C   0  0  0  0  0  3  0  0  0  0  0  0
   15.2930   17.2280   88.7670 C   0  0  0  0  0  2  0  0  0  0  0  0
   16.7010   15.8680   90.7590 N   0  0  0  0  0  1  0  0  0  0  0  0
   17.1040   25.9270   93.3490 N   0  0  0  0  0  2  0  0  0  0  0  0
   16.0230   23.8280   93.0740 N   0  0  0  0  0  2  0  0  0  0  0  0
   17.2710   27.4730   91.5340 N   0  0  0  0  0  1  0  0  0  0  0  0
   15.7640   25.3760   89.8980 N   0  0  0  0  0  2  0  0  0  0  0  0
   15.1250   23.4490   90.7720 N   0  0  0  0  0  0  0  0  0  0  0  0
   14.8280   18.1480   86.6450 N   0  0  0  0  0  1  0  0  0  0  0  0
   16.6070   14.1000   88.9340 O   0  0  0  0  0  1  0  0  0  0  0  0
   12.1690   22.5200   91.2940 O   0  0  0  0  0  1  0  0  0  0  0  0
   12.6050   19.7960   91.2140 O   0  0  0  0  0  1  0  0  0  0  0  0
   15.3160   21.1870   90.1730 O   0  0  0  0  0  0  0  0  0  0  0  0
   14.5450   13.3840   89.4020 O   0  0  0  0  0  1  0  0  0  0  0  0
  1 12  1  0
  1 23  1  0
  1 27  1  0
  2  4  1  0
  2 21  1  0
  2 26  1  0
  3 17  1  0
  3 18  1  0
  4  5  1  0
  4 24  1  0
  5  7  1  0
  5 25  1  0
  6  8  1  0
  6 18  1  0
  6 21  1  0
  7  9  1  0
  7 26  1  0
  8 10  1  0
  8 20  1  0
  9 14  1  0
 10 17  1  0
 10 19  1  0
 11 20  1  0
 11 21  1  0
 12 13  1  0
 12 16  1  0
 13 15  1  0
 14 15  1  0
 14 22  1  0
M  END
$$$$
