5dxa_C_SFG_501
     RDKit          3D

 27 29  0  0  0  0  0  0  0  0999 V2000
   15.6470   14.0720   89.7120 C   0  0  0  0  0  3  0  0  0  0  0  0
   14.6510   22.0390   91.1150 C   0  0  0  0  0  3  0  0  0  0  0  0
   16.8270   24.6400   94.0710 C   0  0  0  0  0  2  0  0  0  0  0  0
   13.2640   21.8840   90.5100 C   0  0  0  0  0  3  0  0  0  0  0  0
   13.2080   20.3910   90.3040 C   0  0  0  0  0  3  0  0  0  0  0  0
   15.9280   23.9870   91.9840 C   0  0  0  0  0  3  0  0  0  0  0  0
   14.6380   19.9660   90.0400 C   0  0  0  0  0  3  0  0  0  0  0  0
   16.4470   25.2040   91.3960 C   0  0  0  0  0  3  0  0  0  0  0  0
   14.9210   19.5900   88.5960 C   0  0  0  0  0  2  0  0  0  0  0  0
   17.1820   26.1230   92.2810 C   0  0  0  0  0  3  0  0  0  0  0  0
   15.4100   24.0600   89.8620 C   0  0  0  0  0  2  0  0  0  0  0  0
   15.5780   15.2550   90.6460 C   0  0  0  0  0  3  0  0  0  0  0  0
   14.6950   16.3700   90.0880 C   0  0  0  0  0  2  0  0  0  0  0  0
   14.5190   18.1630   88.2410 C   0  0  0  0  0  3  0  0  0  0  0  0
   15.3360   17.0740   88.9020 C   0  0  0  0  0  2  0  0  0  0  0  0
   16.9280   15.7120   90.9000 N   0  0  0  0  0  1  0  0  0  0  0  0
   17.3380   25.7940   93.5880 N   0  0  0  0  0  2  0  0  0  0  0  0
   16.1460   23.7640   93.3020 N   0  0  0  0  0  2  0  0  0  0  0  0
   17.6590   27.2610   91.7540 N   0  0  0  0  0  1  0  0  0  0  0  0
   16.0980   25.1920   90.1010 N   0  0  0  0  0  2  0  0  0  0  0  0
   15.2980   23.3490   90.9870 N   0  0  0  0  0  0  0  0  0  0  0  0
   14.8630   18.0980   86.8520 N   0  0  0  0  0  1  0  0  0  0  0  0
   14.6530   13.3360   89.6070 O   0  0  0  0  0  1  0  0  0  0  0  0
   12.3090   22.4020   91.4250 O   0  0  0  0  0  1  0  0  0  0  0  0
   12.8510   19.7270   91.5070 O   0  0  0  0  0  1  0  0  0  0  0  0
   15.4490   21.0800   90.4300 O   0  0  0  0  0  0  0  0  0  0  0  0
   16.7080   13.8770   89.0790 O   0  0  0  0  0  1  0  0  0  0  0  0
  1 12  1  0
  1 23  1  0
  1 27  1  0
  2  4  1  0
  2 21  1  0
  2 26  1  0
  3 17  1  0
  3 18  1  0
  4  5  1  0
  4 24  1  0
  5  7  1  0
  5 25  1  0
  6  8  1  0
  6 18  1  0
  6 21  1  0
  7  9  1  0
  7 26  1  0
  8 10  1  0
  8 20  1  0
  9 14  1  0
 10 17  1  0
 10 19  1  0
 11 20  1  0
 11 21  1  0
 12 13  1  0
 12 16  1  0
 13 15  1  0
 14 15  1  0
 14 22  1  0
M  END
$$$$
