5dxa_A_SFG_501
     RDKit          3D

 27 29  0  0  0  0  0  0  0  0999 V2000
   16.2130   34.5920   33.2180 C   0  0  0  0  0  3  0  0  0  0  0  0
   12.4760   38.0940   26.8020 C   0  0  0  0  0  3  0  0  0  0  0  0
   13.0230   42.0990   24.9360 C   0  0  0  0  0  2  0  0  0  0  0  0
   11.3470   37.0840   27.0150 C   0  0  0  0  0  3  0  0  0  0  0  0
   11.8180   36.3180   28.2450 C   0  0  0  0  0  3  0  0  0  0  0  0
   12.8250   39.7720   25.0060 C   0  0  0  0  0  3  0  0  0  0  0  0
   13.3380   36.4950   28.2670 C   0  0  0  0  0  3  0  0  0  0  0  0
   13.0170   39.7210   23.5680 C   0  0  0  0  0  3  0  0  0  0  0  0
   14.1790   35.2470   28.0120 C   0  0  0  0  0  2  0  0  0  0  0  0
   13.1900   40.9790   22.8720 C   0  0  0  0  0  3  0  0  0  0  0  0
   12.7780   37.7340   24.3190 C   0  0  0  0  0  2  0  0  0  0  0  0
   15.5230   35.7870   32.6020 C   0  0  0  0  0  3  0  0  0  0  0  0
   14.5270   35.4520   31.4790 C   0  0  0  0  0  2  0  0  0  0  0  0
   14.3970   34.2750   29.1730 C   0  0  0  0  0  3  0  0  0  0  0  0
   15.2640   34.8450   30.2820 C   0  0  0  0  0  2  0  0  0  0  0  0
   16.5370   36.6830   32.0840 N   0  0  0  0  0  1  0  0  0  0  0  0
   13.1840   42.0960   23.5930 N   0  0  0  0  0  2  0  0  0  0  0  0
   12.8370   40.9780   25.6480 N   0  0  0  0  0  2  0  0  0  0  0  0
   13.3460   40.9850   21.5440 N   0  0  0  0  0  1  0  0  0  0  0  0
   12.9780   38.4510   23.1810 N   0  0  0  0  0  2  0  0  0  0  0  0
   12.7010   38.5110   25.4050 N   0  0  0  0  0  0  0  0  0  0  0  0
   15.1740   33.1590   28.6650 N   0  0  0  0  0  1  0  0  0  0  0  0
   15.5760   33.8620   33.9960 O   0  0  0  0  0  1  0  0  0  0  0  0
   10.0510   37.7020   27.1570 O   0  0  0  0  0  1  0  0  0  0  0  0
   11.2700   36.8830   29.4370 O   0  0  0  0  0  1  0  0  0  0  0  0
   13.6120   37.3960   27.2070 O   0  0  0  0  0  0  0  0  0  0  0  0
   17.4430   34.3930   32.9920 O   0  0  0  0  0  1  0  0  0  0  0  0
  1 12  1  0
  1 23  1  0
  1 27  1  0
  2  4  1  0
  2 21  1  0
  2 26  1  0
  3 17  1  0
  3 18  1  0
  4  5  1  0
  4 24  1  0
  5  7  1  0
  5 25  1  0
  6  8  1  0
  6 18  1  0
  6 21  1  0
  7  9  1  0
  7 26  1  0
  8 10  1  0
  8 20  1  0
  9 14  1  0
 10 17  1  0
 10 19  1  0
 11 20  1  0
 11 21  1  0
 12 13  1  0
 12 16  1  0
 13 15  1  0
 14 15  1  0
 14 22  1  0
M  END
$$$$
