5ih3_C_DXE_507
     RDKit          3D

 16 15  0  0  0  0  0  0  0  0999 V2000
   14.6360   39.0960  158.3270 C   0  0  0  0  0  0  0  0  0  0  0  0
   13.4520   37.1210  158.8930 C   0  0  0  0  0  0  0  0  0  0  0  0
   11.9990   37.4700  159.1820 C   0  0  0  0  0  0  0  0  0  0  0  0
    9.9150   36.4570  159.7320 C   0  0  0  0  0  0  0  0  0  0  0  0
   15.1650   39.8080  158.7190 H   0  0  0  0  0  0  0  0  0  0  0  0
   15.1470   38.6620  157.6260 H   0  0  0  0  0  0  0  0  0  0  0  0
   13.8220   39.4680  157.9510 H   0  0  0  0  0  0  0  0  0  0  0  0
   13.5650   36.9850  157.9390 H   0  0  0  0  0  0  0  0  0  0  0  0
   13.6840   36.3030  159.3610 H   0  0  0  0  0  0  0  0  0  0  0  0
   11.9600   38.1390  159.8840 H   0  0  0  0  0  0  0  0  0  0  0  0
   11.5840   37.8200  158.3780 H   0  0  0  0  0  0  0  0  0  0  0  0
    9.5470   36.8100  158.9070 H   0  0  0  0  0  0  0  0  0  0  0  0
    9.5160   35.5930  159.9200 H   0  0  0  0  0  0  0  0  0  0  0  0
    9.7210   37.0680  160.4600 H   0  0  0  0  0  0  0  0  0  0  0  0
   14.3070   38.1560  159.3170 O   0  0  0  0  0  0  0  0  0  0  0  0
   11.3110   36.3110  159.5990 O   0  0  0  0  0  0  0  0  0  0  0  0
  1  5  1  0
  1  6  1  0
  1  7  1  0
  1 15  1  0
  2  3  1  0
  2  8  1  0
  2  9  1  0
  2 15  1  0
  3 10  1  0
  3 11  1  0
  3 16  1  0
  4 12  1  0
  4 13  1  0
  4 14  1  0
  4 16  1  0
M  END
$$$$
