5ih3_C_SAH_501
     RDKit          3D

 46 62  0  0  0  0  0  0  0  0999 V2000
   23.2990   35.9640  172.6010 C   0  0  0  0  0  0  0  0  0  0  0  0
   27.3760   39.2910  179.0840 C   0  0  0  0  0  0  0  0  0  0  0  0
   26.9930   43.2310  180.9950 C   0  0  0  0  0  3  0  0  0  0  0  0
   28.4520   38.2230  178.8920 C   0  0  0  0  0  0  0  0  0  0  0  0
   27.9570   37.5170  177.6150 C   0  0  0  0  0  0  0  0  0  0  0  0
   27.0900   41.0300  180.9250 C   0  0  0  0  0  3  0  0  0  0  0  0
   26.4360   37.7030  177.6650 C   0  0  0  0  0  0  0  0  0  0  0  0
   26.8200   40.9230  182.2800 C   0  0  0  0  0  3  0  0  0  0  0  0
   25.6300   36.4580  177.9770 C   0  0  0  0  0  5  0  0  0  0  0  0
   26.6340   42.1220  182.9920 C   0  0  0  0  0  3  0  0  0  0  0  0
   26.9840   38.9390  181.5510 C   0  0  0  0  0  3  0  0  0  0  0  0
   24.0450   37.1450  173.2330 C   0  0  0  0  0  6  0  0  0  0  0  0
   25.0370   36.6840  174.3080 C   0  0  0  0  0  6  0  0  0  0  0  0
   24.3670   35.9640  175.4740 C   0  0  0  0  0  0  0  0  0  0  0  0
   27.5130   40.1760  178.4640 H   0  0  0  0  0  0  0  0  0  0  0  0
   27.0560   44.2000  180.5030 H   0  0  0  0  0  0  0  0  0  0  0  0
   28.5710   37.5450  179.7360 H   0  0  0  0  0  0  0  0  0  0  0  0
   22.5150   38.5740  173.0880 H   0  0  0  0  0  0  0  0  0  0  0  0
   28.3010   36.4880  177.5250 H   0  0  0  0  0  0  0  0  0  0  0  0
   26.0410   38.1710  176.7650 H   0  0  0  0  0  0  0  0  0  0  0  0
   24.5900   36.6890  178.2040 H   0  0  0  0  0  2  0  0  0  0  0  0
   26.0090   35.9520  178.8640 H   0  0  0  0  0  0  0  0  0  0  0  0
   27.0030   37.8510  181.4950 H   0  0  0  0  0  0  0  0  0  0  0  0
   24.5900   37.6430  172.4320 H   0  0  0  0  0  0  0  0  0  0  0  0
   25.5560   37.5660  174.6770 H   0  0  0  0  0  2  0  0  0  0  0  0
   25.8290   36.0750  173.8750 H   0  0  0  0  0  0  0  0  0  0  0  0
   23.7320   35.1380  175.1570 Hg  0  0  0  0  0  7  0  0  0  0  0  0
   23.7190   36.6340  176.0370 Hg  0  0  0  0  0 10  0  0  0  0  0  0
   23.4690   38.7950  174.4130 H   0  0  0  0  0  0  0  0  0  0  0  0
   22.4390   37.5040  174.3510 H   0  0  0  0  0  2  0  0  0  0  0  0
   26.3580   41.3130  184.8490 H   0  0  0  0  0  0  0  0  0  0  0  0
   26.2760   43.0530  184.7910 H   0  0  0  0  0  0  0  0  0  0  0  0
   29.6410   39.7970  178.5340 H   0  0  0  0  0  0  0  0  0  0  0  0
   28.3860   39.0910  176.4920 H   0  0  0  0  0  0  0  0  0  0  0  0
   23.0550   38.0970  173.8040 N   0  0  0  0  0  5  0  0  0  0  0  0
   26.7240   43.2810  182.3030 N   0  0  0  0  0  2  0  0  0  0  0  0
   27.1930   42.1610  180.2180 N   0  0  0  0  0  2  0  0  0  0  0  0
   26.4060   42.1700  184.3070 N   0  0  0  0  0  0  0  0  0  0  0  0
   26.7630   39.5940  182.6650 N   0  0  0  0  0  2  0  0  0  0  0  0
   27.1910   39.7410  180.4610 N   0  0  0  0  0  0  0  0  0  0  0  0
   23.9280   35.2570  171.7860 O   0  0  0  0  0  1  0  0  0  0  0  0
   29.7400   38.8420  178.7880 O   0  0  0  0  0  0  0  0  0  0  0  0
   28.4620   38.1030  176.4210 O   0  0  0  0  0  0  0  0  0  0  0  0
   26.1750   38.6720  178.7030 O   0  0  0  0  0  0  0  0  0  0  0  0
   22.0950   35.7990  172.9390 O   0  0  0  0  0  0  0  0  0  0  0  0
   25.6710   35.3190  176.5680 S   0  0  0  0  0  4  0  0  0  0  0  0
  1 12  1  0
  1 27  1  0
  1 41  1  0
  1 45  1  0
  2  4  1  0
  2 15  1  0
  2 40  1  0
  2 44  1  0
  3 16  1  0
  3 36  1  0
  3 37  1  0
  4  5  1  0
  4 17  1  0
  4 42  1  0
  5  7  1  0
  5 19  1  0
  5 43  1  0
  6  8  1  0
  6 37  1  0
  6 40  1  0
  7  9  1  0
  7 20  1  0
  7 44  1  0
  8 10  1  0
  8 39  1  0
  9 21  1  0
  9 22  1  0
  9 28  1  0
  9 46  1  0
 10 36  1  0
 10 38  1  0
 11 23  1  0
 11 39  1  0
 11 40  1  0
 12 13  1  0
 12 24  1  0
 12 27  1  0
 12 28  1  0
 12 35  1  0
 13 14  1  0
 13 25  1  0
 13 26  1  0
 13 27  1  0
 13 28  1  0
 14 27  1  0
 14 28  1  0
 14 46  1  0
 18 35  1  0
 21 28  1  0
 25 28  1  0
 27 28  1  0
 27 45  1  0
 27 46  1  0
 28 30  1  0
 28 35  1  0
 28 46  1  0
 29 35  1  0
 30 35  1  0
 31 38  1  0
 32 38  1  0
 33 42  1  0
 34 43  1  0
M  END
$$$$
