5is6_A_DXE_506
     RDKit          3D

 16 15  0  0  0  0  0  0  0  0999 V2000
   51.8040   17.3600  137.8280 C   0  0  0  0  0  0  0  0  0  0  0  0
   51.9480   19.6610  137.2950 C   0  0  0  0  0  0  0  0  0  0  0  0
   52.5490   20.7170  138.2190 C   0  0  0  0  0  0  0  0  0  0  0  0
   50.9430   22.5110  138.2750 C   0  0  0  0  0  0  0  0  0  0  0  0
   51.1260   17.2450  137.1430 H   0  0  0  0  0  0  0  0  0  0  0  0
   52.3470   16.5580  137.8820 H   0  0  0  0  0  0  0  0  0  0  0  0
   51.3750   17.5180  138.6840 H   0  0  0  0  0  0  0  0  0  0  0  0
   52.0510   19.9390  136.3720 H   0  0  0  0  0  0  0  0  0  0  0  0
   51.0060   19.5480  137.4990 H   0  0  0  0  0  0  0  0  0  0  0  0
   53.5160   20.6370  138.2000 H   0  0  0  0  0  0  0  0  0  0  0  0
   52.2380   20.5570  139.1240 H   0  0  0  0  0  0  0  0  0  0  0  0
   50.8560   23.4480  138.0400 H   0  0  0  0  0  0  0  0  0  0  0  0
   50.8790   22.4120  139.2370 H   0  0  0  0  0  0  0  0  0  0  0  0
   50.2340   22.0040  137.8490 H   0  0  0  0  0  0  0  0  0  0  0  0
   52.6200   18.4590  137.5020 O   0  0  0  0  0  0  0  0  0  0  0  0
   52.1900   22.0330  137.8370 O   0  0  0  0  0  0  0  0  0  0  0  0
  1  5  1  0
  1  6  1  0
  1  7  1  0
  1 15  1  0
  2  3  1  0
  2  8  1  0
  2  9  1  0
  2 15  1  0
  3 10  1  0
  3 11  1  0
  3 16  1  0
  4 12  1  0
  4 13  1  0
  4 14  1  0
  4 16  1  0
M  END
$$$$
