5is6_D_DXE_503
     RDKit          3D

 16 15  0  0  0  0  0  0  0  0999 V2000
   63.7830    7.9920  175.6090 C   0  0  0  0  0  0  0  0  0  0  0  0
   64.8780   10.0680  175.2140 C   0  0  0  0  0  0  0  0  0  0  0  0
   66.2670    9.4690  175.2930 C   0  0  0  0  0  0  0  0  0  0  0  0
   68.5200    9.9510  174.9930 C   0  0  0  0  0  0  0  0  0  0  0  0
   63.1070    7.4090  175.2280 H   0  0  0  0  0  0  0  0  0  0  0  0
   64.6110    7.4980  175.7170 H   0  0  0  0  0  0  0  0  0  0  0  0
   63.4820    8.3130  176.4730 H   0  0  0  0  0  0  0  0  0  0  0  0
   64.8820   10.8200  174.6020 H   0  0  0  0  0  0  0  0  0  0  0  0
   64.6000   10.3650  176.0950 H   0  0  0  0  0  0  0  0  0  0  0  0
   66.3900    8.8460  174.5600 H   0  0  0  0  0  0  0  0  0  0  0  0
   66.3650    8.9970  176.1350 H   0  0  0  0  0  0  0  0  0  0  0  0
   69.1420   10.6800  174.8400 H   0  0  0  0  0  0  0  0  0  0  0  0
   68.8000    9.4440  175.7710 H   0  0  0  0  0  0  0  0  0  0  0  0
   68.5060    9.3700  174.2160 H   0  0  0  0  0  0  0  0  0  0  0  0
   63.9980    9.0870  174.7490 O   0  0  0  0  0  0  0  0  0  0  0  0
   67.2300   10.4730  175.2120 O   0  0  0  0  0  0  0  0  0  0  0  0
  1  5  1  0
  1  6  1  0
  1  7  1  0
  1 15  1  0
  2  3  1  0
  2  8  1  0
  2  9  1  0
  2 15  1  0
  3 10  1  0
  3 11  1  0
  3 16  1  0
  4 12  1  0
  4 13  1  0
  4 14  1  0
  4 16  1  0
M  END
$$$$
