5isa_B_6D5_501
     RDKit          3D

 57 59  0  0  0  0  0  0  0  0999 V2000
   22.4740   26.3520  113.0730 C   0  0  0  0  0  3  0  0  0  0  0  0
   23.7210   15.9850  117.0110 C   0  0  0  0  0  3  0  0  0  0  0  0
   24.1450   18.2840  117.8110 C   0  0  0  0  0  0  0  0  0  0  0  0
   23.4260   19.1960  118.8180 C   0  0  0  0  0  0  0  0  0  0  0  0
   24.0450   21.5950  118.7690 C   0  0  0  0  0  0  0  0  0  0  0  0
   24.3950   21.7500  117.2680 C   0  0  0  0  0  0  0  0  0  0  0  0
   25.8400   22.0380  116.9570 C   0  0  0  0  0  0  0  0  0  0  0  0
   25.8560   23.4600  116.6030 C   0  0  0  0  0  0  0  0  0  0  0  0
   24.5000   23.6520  116.0400 C   0  0  0  0  0  0  0  0  0  0  0  0
   23.3320   25.6950  115.1860 C   0  0  0  0  0  3  0  0  0  0  0  0
   22.9060   26.8690  115.7230 C   0  0  0  0  0  3  0  0  0  0  0  0
   22.2590   27.7990  114.9110 C   0  0  0  0  0  3  0  0  0  0  0  0
   23.8680   25.6980  117.3310 C   0  0  0  0  0  3  0  0  0  0  0  0
   24.7630   20.2260  120.7130 C   0  0  0  0  0  0  0  0  0  0  0  0
   23.5690   20.1780  121.6490 C   0  0  0  0  0  0  0  0  0  0  0  0
   24.0050   20.5370  123.0630 C   0  0  0  0  0  0  0  0  0  0  0  0
   23.1840   17.4000  117.0340 C   0  0  0  0  0  0  0  0  0  0  0  0
   22.3230   26.1620  112.1290 H   0  0  0  0  0  0  0  0  0  0  0  0
   21.4300   18.2150  117.3250 H   0  0  0  0  0  0  0  0  0  0  0  0
   23.1540   17.7350  116.1300 H   0  0  0  0  0  0  0  0  0  0  0  0
   24.6180   18.8400  117.1790 H   0  0  0  0  0  0  0  0  0  0  0  0
   24.7920   17.7250  118.2840 H   0  0  0  0  0  0  0  0  0  0  0  0
   22.6950   19.6380  118.3590 H   0  0  0  0  0  0  0  0  0  0  0  0
   23.0760   18.6860  119.5730 H   0  0  0  0  0  0  0  0  0  0  0  0
   23.0860   21.7320  118.8850 H   0  0  0  0  0  0  0  0  0  0  0  0
   24.5300   22.2690  119.2870 H   0  0  0  0  0  0  0  0  0  0  0  0
   24.2190   25.4310  118.1960 H   0  0  0  0  0  0  0  0  0  0  0  0
   24.1600   20.9260  116.8170 H   0  0  0  0  0  0  0  0  0  0  0  0
   26.3960   21.9000  117.7380 H   0  0  0  0  0  0  0  0  0  0  0  0
   25.7380   21.3540  115.2130 H   0  0  0  0  0  0  0  0  0  0  0  0
   25.9700   24.0120  117.4020 H   0  0  0  0  0  0  0  0  0  0  0  0
   26.5390   23.5850  114.8620 H   0  0  0  0  0  0  0  0  0  0  0  0
   24.5290   23.4240  115.0990 H   0  0  0  0  0  0  0  0  0  0  0  0
   22.0070   29.2550  116.3570 H   0  0  0  0  0  0  0  0  0  0  0  0
   21.3310   29.6250  114.9720 H   0  0  0  0  0  0  0  0  0  0  0  0
   25.2720   21.0290  120.9150 H   0  0  0  0  0  0  0  0  0  0  0  0
   25.3260   19.4470  120.9000 H   0  0  0  0  0  0  0  0  0  0  0  0
   23.1940   19.2830  121.6460 H   0  0  0  0  0  0  0  0  0  0  0  0
   22.9000   20.8070  121.3480 H   0  0  0  0  0  0  0  0  0  0  0  0
   24.6340   21.2710  123.0340 H   0  0  0  0  0  0  0  0  0  0  0  0
   23.2310   20.8070  123.5830 H   0  0  0  0  0  0  0  0  0  0  0  0
   21.8560   17.3370  118.4580 H   0  0  0  0  0  0  0  0  0  0  0  0
   21.8350   17.4200  117.5510 N   0  0  0  0  0  0  0  0  0  0  0  0
   26.1580   19.7140  126.0020 N   0  0  0  0  0  1  0  0  0  0  0  0
   24.4060   20.2280  119.2630 N   0  0  0  0  0  0  0  0  0  0  0  0
   22.0380   27.5330  113.6140 N   0  0  0  0  0  2  0  0  0  0  0  0
   23.1190   25.4300  113.8680 N   0  0  0  0  0  2  0  0  0  0  0  0
   21.8080   29.0460  115.4760 N   0  0  0  0  0  0  0  0  0  0  0  0
   23.2310   26.8780  117.0420 N   0  0  0  0  0  2  0  0  0  0  0  0
   23.9390   24.9780  116.1800 N   0  0  0  0  0  0  0  0  0  0  0  0
   24.6470   19.3700  123.7120 N   0  0  0  0  0  2  0  0  0  0  0  0
   25.4000   19.5760  124.8510 N   0  0  0  0  0  2  0  0  0  0  0  0
   24.0110   15.6350  115.8280 O   0  0  0  0  0  1  0  0  0  0  0  0
   23.6110   22.7720  116.7090 O   0  0  0  0  0  0  0  0  0  0  0  0
   26.3050   21.2880  115.8870 O   0  0  0  0  0  0  0  0  0  0  0  0
   26.8390   23.7570  115.6770 O   0  0  0  0  0  0  0  0  0  0  0  0
   23.7420   15.5160  118.1800 O   0  0  0  0  0  1  0  0  0  0  0  0
  1 18  1  0
  1 46  1  0
  1 47  1  0
  2 17  1  0
  2 53  1  0
  2 57  1  0
  3  4  1  0
  3 17  1  0
  3 21  1  0
  3 22  1  0
  4 23  1  0
  4 24  1  0
  4 45  1  0
  5  6  1  0
  5 25  1  0
  5 26  1  0
  5 45  1  0
  6  7  1  0
  6 28  1  0
  6 54  1  0
  7  8  1  0
  7 29  1  0
  7 55  1  0
  8  9  1  0
  8 31  1  0
  8 56  1  0
  9 33  1  0
  9 50  1  0
  9 54  1  0
 10 11  1  0
 10 47  1  0
 10 50  1  0
 11 12  1  0
 11 49  1  0
 12 46  1  0
 12 48  1  0
 13 27  1  0
 13 49  1  0
 13 50  1  0
 14 15  1  0
 14 36  1  0
 14 37  1  0
 14 45  1  0
 15 16  1  0
 15 38  1  0
 15 39  1  0
 16 40  1  0
 16 41  1  0
 16 51  1  0
 17 20  1  0
 17 43  1  0
 19 43  1  0
 30 55  1  0
 32 56  1  0
 34 48  1  0
 35 48  1  0
 42 43  1  0
 44 52  1  0
 51 52  1  0
M  END
$$$$
