5isb_A_M2M_508
     RDKit          3D

 23 22  0  0  0  0  0  0  0  0999 V2000
   74.6770   40.6530  125.3000 C   0  0  0  0  0  0  0  0  0  0  0  0
   74.2180   41.8020  127.3580 C   0  0  0  0  0  0  0  0  0  0  0  0
   74.3880   40.5610  128.2650 C   0  0  0  0  0  0  0  0  0  0  0  0
   75.3940   40.3390  130.4940 C   0  0  0  0  0  0  0  0  0  0  0  0
   75.7120   38.8590  130.1400 C   0  0  0  0  0  0  0  0  0  0  0  0
   77.4110   37.2720  130.7550 C   0  0  0  0  0  0  0  0  0  0  0  0
   74.8330   41.3310  124.6240 H   0  0  0  0  0  0  0  0  0  0  0  0
   75.5850   40.3100  125.3160 H   0  0  0  0  0  0  0  0  0  0  0  0
   74.2400   39.7970  125.4310 H   0  0  0  0  0  0  0  0  0  0  0  0
   75.0700   42.2560  127.2730 H   0  0  0  0  0  0  0  0  0  0  0  0
   73.5710   42.4040  127.7570 H   0  0  0  0  0  0  0  0  0  0  0  0
   75.2160   40.1110  128.0370 H   0  0  0  0  0  0  0  0  0  0  0  0
   73.6450   39.9550  128.1190 H   0  0  0  0  0  0  0  0  0  0  0  0
   76.2150   40.8530  130.4370 H   0  0  0  0  0  0  0  0  0  0  0  0
   75.0680   40.3750  131.4070 H   0  0  0  0  0  0  0  0  0  0  0  0
   74.8800   38.3720  130.0290 H   0  0  0  0  0  0  0  0  0  0  0  0
   76.2120   38.8300  129.3100 H   0  0  0  0  0  0  0  0  0  0  0  0
   77.8290   36.8760  131.5350 H   0  0  0  0  0  0  0  0  0  0  0  0
   76.9560   36.5830  130.2460 H   0  0  0  0  0  0  0  0  0  0  0  0
   78.0900   37.6880  130.2010 H   0  0  0  0  0  0  0  0  0  0  0  0
   73.7650   41.4130  126.0730 O   0  0  0  0  0  0  0  0  0  0  0  0
   74.4220   40.9390  129.6390 O   0  0  0  0  0  0  0  0  0  0  0  0
   76.4760   38.2480  131.1670 O   0  0  0  0  0  0  0  0  0  0  0  0
  1  7  1  0
  1  8  1  0
  1  9  1  0
  1 21  1  0
  2  3  1  0
  2 10  1  0
  2 11  1  0
  2 21  1  0
  3 12  1  0
  3 13  1  0
  3 22  1  0
  4  5  1  0
  4 14  1  0
  4 15  1  0
  4 22  1  0
  5 16  1  0
  5 17  1  0
  5 23  1  0
  6 18  1  0
  6 19  1  0
  6 20  1  0
  6 23  1  0
M  END
$$$$
