5isb_A_6CX_501
     RDKit          3D

 56 74  0  0  0  0  0  0  0  0999 V2000
   53.7270   34.8110  135.3870 C   0  0  0  0  0  3  0  0  0  0  0  0
   49.7000   38.0310  129.0670 C   0  0  0  0  0  0  0  0  0  0  0  0
   52.2120   33.1760  131.2390 C   0  0  0  0  0  5  0  0  0  0  0  0
   50.2440   42.0120  127.2500 C   0  0  0  0  0  3  0  0  0  0  0  0
   48.6440   37.0270  129.3820 C   0  0  0  0  0  0  0  0  0  0  0  0
   49.0940   36.3990  130.6100 C   0  0  0  0  0  0  0  0  0  0  0  0
   50.0480   39.6960  127.2790 C   0  0  0  0  0  3  0  0  0  0  0  0
   50.5610   36.5570  130.5900 C   0  0  0  0  0  5  0  0  0  0  0  0
   50.2460   39.6490  125.9070 C   0  0  0  0  0  3  0  0  0  0  0  0
   51.2660   35.2250  130.4670 C   0  0  0  0  0  5  0  0  0  0  0  0
   52.0850   32.3780  129.9790 C   0  0  0  0  0  3  0  0  0  0  0  0
   50.9070   31.9850  129.4630 C   0  0  0  0  0  3  0  0  0  0  0  0
   52.5000   31.2890  128.2240 C   0  0  0  0  0  3  0  0  0  0  0  0
   50.4290   40.8540  125.2340 C   0  0  0  0  0  3  0  0  0  0  0  0
   49.9860   37.6040  126.5790 C   0  0  0  0  0  3  0  0  0  0  0  0
   53.2350   35.9080  134.4960 C   0  0  0  0  0  6  0  0  0  0  0  0
   52.9090   35.2670  133.1080 C   0  0  0  0  0  6  0  0  0  0  0  0
   51.5190   34.7400  132.8500 C   0  0  0  0  0  0  0  0  0  0  0  0
   54.9280   36.7680  134.9260 H   0  0  0  0  0  0  0  0  0  0  0  0
   49.5540   38.8330  129.5780 H   0  0  0  0  0  0  0  0  0  0  0  0
   52.1820   32.5510  131.9760 H   0  0  0  0  0  2  0  0  0  0  0  0
   53.0730   33.5890  131.2400 H   0  0  0  0  0  0  0  0  0  0  0  0
   53.9700   37.6890  134.2460 H   0  0  0  0  0  0  0  0  0  0  0  0
   48.5650   36.3360  128.7070 H   0  0  0  0  0  0  0  0  0  0  0  0
   47.2830   38.2550  128.9220 H   0  0  0  0  0  0  0  0  0  0  0  0
   50.2400   42.8670  127.7360 H   0  0  0  0  0  0  0  0  0  0  0  0
   48.8700   35.4640  130.5680 H   0  0  0  0  0  0  0  0  0  0  0  0
   48.3410   37.8280  131.5940 H   0  0  0  0  0  0  0  0  0  0  0  0
   50.8370   37.0060  131.4070 H   0  0  0  0  0  2  0  0  0  0  0  0
   52.2060   35.4350  130.3550 H   0  0  0  0  0  0  0  0  0  0  0  0
   50.9660   34.8160  129.6370 H   0  0  0  0  0  0  0  0  0  0  0  0
   50.0560   32.1790  129.8470 H   0  0  0  0  0  0  0  0  0  0  0  0
   50.4980   30.8810  127.7490 H   0  0  0  0  0  0  0  0  0  0  0  0
   53.0070   30.8760  127.5170 H   0  0  0  0  0  0  0  0  0  0  0  0
   50.6310   40.1220  123.3950 H   0  0  0  0  0  0  0  0  0  0  0  0
   50.8210   41.6640  123.4450 H   0  0  0  0  0  0  0  0  0  0  0  0
   49.9120   36.6490  126.5870 H   0  0  0  0  0  0  0  0  0  0  0  0
   52.4800   36.3820  134.8890 H   0  0  0  0  0  0  0  0  0  0  0  0
   53.1160   35.9270  132.4120 H   0  0  0  0  0  2  0  0  0  0  0  0
   53.5130   34.5280  132.9970 H   0  0  0  0  0  2  0  0  0  0  0  0
   50.8850   35.4920  133.0120 Hg  0  0  0  0  0 10  0  0  0  0  0  0
   51.3380   34.0470  133.5000 Hg  0  0  0  0  0  8  0  0  0  0  0  0
   54.3030   36.8430  134.2580 N   0  0  0  0  0  0  0  0  0  0  0  0
   50.4280   42.0110  125.9360 N   0  0  0  0  0  2  0  0  0  0  0  0
   50.0470   40.8870  127.9140 N   0  0  0  0  0  2  0  0  0  0  0  0
   51.0980   31.2620  128.2980 N   0  0  0  0  0  0  0  0  0  0  0  0
   53.0500   31.9680  129.2410 N   0  0  0  0  0  2  0  0  0  0  0  0
   50.6530   40.8780  123.8620 N   0  0  0  0  0  0  0  0  0  0  0  0
   50.1900   38.3540  125.5110 N   0  0  0  0  0  2  0  0  0  0  0  0
   49.8820   38.4150  127.6560 N   0  0  0  0  0  0  0  0  0  0  0  0
   51.2090   34.1880  131.5180 N   0  0  0  0  0  5  0  0  0  0  0  0
   54.9070   34.4150  135.1880 O   0  0  0  0  0  1  0  0  0  0  0  0
   47.3630   37.6250  129.5050 O   0  0  0  0  0  0  0  0  0  0  0  0
   48.6050   37.0120  131.7800 O   0  0  0  0  0  3  0  0  0  0  0  0
   50.8610   37.3140  129.4710 O   0  0  0  0  0  0  0  0  0  0  0  0
   52.9740   34.2110  136.2230 O   0  0  0  0  0  1  0  0  0  0  0  0
  1 16  1  0
  1 52  1  0
  1 56  1  0
  2  5  1  0
  2 20  1  0
  2 50  1  0
  2 55  1  0
  3 11  1  0
  3 21  1  0
  3 22  1  0
  3 42  1  0
  3 51  1  0
  4 26  1  0
  4 44  1  0
  4 45  1  0
  5  6  1  0
  5 24  1  0
  5 53  1  0
  6  8  1  0
  6 27  1  0
  6 54  1  0
  7  9  1  0
  7 45  1  0
  7 50  1  0
  8 10  1  0
  8 29  1  0
  8 41  1  0
  8 55  1  0
  9 14  1  0
  9 49  1  0
 10 30  1  0
 10 31  1  0
 10 41  1  0
 10 51  1  0
 11 12  1  0
 11 47  1  0
 12 32  1  0
 12 46  1  0
 13 34  1  0
 13 46  1  0
 13 47  1  0
 14 44  1  0
 14 48  1  0
 15 37  1  0
 15 49  1  0
 15 50  1  0
 16 17  1  0
 16 38  1  0
 16 41  1  0
 16 42  1  0
 16 43  1  0
 17 18  1  0
 17 39  1  0
 17 40  1  0
 17 41  1  0
 17 42  1  0
 18 41  1  0
 18 42  1  0
 18 51  1  0
 19 43  1  0
 21 42  1  0
 23 43  1  0
 25 53  1  0
 28 54  1  0
 29 41  1  0
 33 46  1  0
 35 48  1  0
 36 48  1  0
 39 41  1  0
 40 42  1  0
 41 42  1  0
 41 51  1  0
 41 54  1  0
 42 51  1  0
M  END
$$$$
