5isb_C_6CX_501
     RDKit          3D

 56 74  0  0  0  0  0  0  0  0999 V2000
   23.1490   36.3480  173.2260 C   0  0  0  0  0  3  0  0  0  0  0  0
   27.2290   39.4160  179.6200 C   0  0  0  0  0  0  0  0  0  0  0  0
   24.5720   34.6460  177.3880 C   0  0  0  0  0  5  0  0  0  0  0  0
   26.7920   43.4370  181.5370 C   0  0  0  0  0  3  0  0  0  0  0  0
   28.2650   38.3930  179.3890 C   0  0  0  0  0  0  0  0  0  0  0  0
   27.8600   37.7330  178.1460 C   0  0  0  0  0  0  0  0  0  0  0  0
   26.9000   41.0970  181.4260 C   0  0  0  0  0  3  0  0  0  0  0  0
   26.3860   37.9300  178.0990 C   0  0  0  0  0  5  0  0  0  0  0  0
   26.6650   41.0370  182.8090 C   0  0  0  0  0  3  0  0  0  0  0  0
   25.5980   36.6360  178.1950 C   0  0  0  0  0  5  0  0  0  0  0  0
   24.6140   33.8550  178.6630 C   0  0  0  0  0  3  0  0  0  0  0  0
   25.7230   33.2280  179.1080 C   0  0  0  0  0  3  0  0  0  0  0  0
   24.1130   32.9160  180.4870 C   0  0  0  0  0  3  0  0  0  0  0  0
   26.5070   42.2350  183.5180 C   0  0  0  0  0  3  0  0  0  0  0  0
   26.8720   38.9930  182.0790 C   0  0  0  0  0  3  0  0  0  0  0  0
   23.7660   37.4110  174.1120 C   0  0  0  0  0  6  0  0  0  0  0  0
   24.1150   36.8270  175.5080 C   0  0  0  0  0  6  0  0  0  0  0  0
   25.4610   36.1710  175.7860 C   0  0  0  0  0  0  0  0  0  0  0  0
   22.1040   38.3260  173.7200 H   0  0  0  0  0  0  0  0  0  0  0  0
   27.4270   40.2100  179.1140 H   0  0  0  0  0  0  0  0  0  0  0  0
   24.5710   34.0150  176.6550 H   0  0  0  0  0  2  0  0  0  0  0  0
   23.7460   35.1240  177.3670 H   0  0  0  0  0  0  0  0  0  0  0  0
   23.1240   39.2190  174.3440 H   0  0  0  0  0  0  0  0  0  0  0  0
   28.2500   37.7110  180.0770 H   0  0  0  0  0  0  0  0  0  0  0  0
   29.7940   39.2380  178.6300 H   0  0  0  0  0  0  0  0  0  0  0  0
   26.8350   44.3040  181.0760 H   0  0  0  0  0  0  0  0  0  0  0  0
   28.0630   36.7960  178.2180 H   0  0  0  0  0  0  0  0  0  0  0  0
   28.6920   39.1420  177.1640 H   0  0  0  0  0  0  0  0  0  0  0  0
   26.1740   38.3720  177.2600 H   0  0  0  0  0  2  0  0  0  0  0  0
   25.8900   36.2020  179.0120 H   0  0  0  0  0  0  0  0  0  0  0  0
   24.6650   36.8800  178.3210 H   0  0  0  0  0  0  0  0  0  0  0  0
   26.5660   33.2340  178.6630 H   0  0  0  0  0  0  0  0  0  0  0  0
   26.0130   32.1010  180.8280 H   0  0  0  0  0  0  0  0  0  0  0  0
   23.5850   32.6290  181.2390 H   0  0  0  0  0  0  0  0  0  0  0  0
   26.1540   43.0050  185.3180 H   0  0  0  0  0  0  0  0  0  0  0  0
   26.2850   41.4570  185.3490 H   0  0  0  0  0  0  0  0  0  0  0  0
   26.9020   38.0360  182.0510 H   0  0  0  0  0  0  0  0  0  0  0  0
   24.5200   37.8480  173.6780 H   0  0  0  0  0  0  0  0  0  0  0  0
   23.4230   36.1570  175.7030 H   0  0  0  0  0  2  0  0  0  0  0  0
   24.0050   37.5330  176.1510 H   0  0  0  0  0  2  0  0  0  0  0  0
   26.1650   36.8640  175.6550 Hg  0  0  0  0  0 10  0  0  0  0  0  0
   25.5970   35.4700  175.1350 Hg  0  0  0  0  0  8  0  0  0  0  0  0
   22.7560   38.3880  174.3640 N   0  0  0  0  0  0  0  0  0  0  0  0
   26.5670   43.4100  182.8510 N   0  0  0  0  0  2  0  0  0  0  0  0
   26.9620   42.3000  180.8240 N   0  0  0  0  0  2  0  0  0  0  0  0
   25.4680   32.5940  180.3110 N   0  0  0  0  0  0  0  0  0  0  0  0
   23.6430   33.6700  179.4840 N   0  0  0  0  0  2  0  0  0  0  0  0
   26.2900   42.2370  184.8900 N   0  0  0  0  0  0  0  0  0  0  0  0
   26.6520   39.7300  183.1650 N   0  0  0  0  0  2  0  0  0  0  0  0
   27.0200   39.8080  181.0310 N   0  0  0  0  0  0  0  0  0  0  0  0
   25.6540   35.5800  177.1360 N   0  0  0  0  0  5  0  0  0  0  0  0
   21.9470   36.0270  173.4320 O   0  0  0  0  0  1  0  0  0  0  0  0
   29.5990   38.9220  179.4080 O   0  0  0  0  0  0  0  0  0  0  0  0
   28.4230   38.3280  176.9760 O   0  0  0  0  0  3  0  0  0  0  0  0
   26.0510   38.7510  179.1870 O   0  0  0  0  0  0  0  0  0  0  0  0
   23.8080   35.7250  172.3540 O   0  0  0  0  0  1  0  0  0  0  0  0
  1 16  1  0
  1 52  1  0
  1 56  1  0
  2  5  1  0
  2 20  1  0
  2 50  1  0
  2 55  1  0
  3 11  1  0
  3 21  1  0
  3 22  1  0
  3 42  1  0
  3 51  1  0
  4 26  1  0
  4 44  1  0
  4 45  1  0
  5  6  1  0
  5 24  1  0
  5 53  1  0
  6  8  1  0
  6 27  1  0
  6 54  1  0
  7  9  1  0
  7 45  1  0
  7 50  1  0
  8 10  1  0
  8 29  1  0
  8 41  1  0
  8 55  1  0
  9 14  1  0
  9 49  1  0
 10 30  1  0
 10 31  1  0
 10 41  1  0
 10 51  1  0
 11 12  1  0
 11 47  1  0
 12 32  1  0
 12 46  1  0
 13 34  1  0
 13 46  1  0
 13 47  1  0
 14 44  1  0
 14 48  1  0
 15 37  1  0
 15 49  1  0
 15 50  1  0
 16 17  1  0
 16 38  1  0
 16 41  1  0
 16 42  1  0
 16 43  1  0
 17 18  1  0
 17 39  1  0
 17 40  1  0
 17 41  1  0
 17 42  1  0
 18 41  1  0
 18 42  1  0
 18 51  1  0
 19 43  1  0
 21 42  1  0
 23 43  1  0
 25 53  1  0
 28 54  1  0
 29 41  1  0
 33 46  1  0
 35 48  1  0
 36 48  1  0
 39 42  1  0
 40 41  1  0
 41 42  1  0
 41 51  1  0
 41 54  1  0
 42 51  1  0
M  END
$$$$
