5isd_A_M2M_506
     RDKit          3D

 23 22  0  0  0  0  0  0  0  0999 V2000
   47.5670   27.1450  127.2920 C   0  0  0  0  0  0  0  0  0  0  0  0
   49.5370   26.1480  128.1710 C   0  0  0  0  0  0  0  0  0  0  0  0
   50.5160   26.2220  129.3670 C   0  0  0  0  0  0  0  0  0  0  0  0
   51.3870   28.4140  128.8540 C   0  0  0  0  0  0  0  0  0  0  0  0
   51.5670   29.1990  130.1780 C   0  0  0  0  0  0  0  0  0  0  0  0
   52.7370   31.0940  129.3340 C   0  0  0  0  0  0  0  0  0  0  0  0
   47.7660   28.0800  127.1300 H   0  0  0  0  0  0  0  0  0  0  0  0
   47.4780   26.8930  126.3600 H   0  0  0  0  0  0  0  0  0  0  0  0
   46.8650   26.5640  127.6250 H   0  0  0  0  0  0  0  0  0  0  0  0
   49.2270   25.2350  128.0650 H   0  0  0  0  0  0  0  0  0  0  0  0
   49.9940   26.4280  127.3630 H   0  0  0  0  0  0  0  0  0  0  0  0
   50.8210   25.3270  129.5850 H   0  0  0  0  0  0  0  0  0  0  0  0
   50.0540   26.5970  130.1330 H   0  0  0  0  0  0  0  0  0  0  0  0
   52.0060   28.7580  128.1920 H   0  0  0  0  0  0  0  0  0  0  0  0
   50.4790   28.5320  128.5340 H   0  0  0  0  0  0  0  0  0  0  0  0
   52.4150   28.9600  130.5830 H   0  0  0  0  0  0  0  0  0  0  0  0
   50.8440   28.9790  130.7860 H   0  0  0  0  0  0  0  0  0  0  0  0
   53.4890   30.8780  129.9080 H   0  0  0  0  0  0  0  0  0  0  0  0
   52.8710   30.6920  128.4620 H   0  0  0  0  0  0  0  0  0  0  0  0
   52.6690   32.0570  129.2400 H   0  0  0  0  0  0  0  0  0  0  0  0
   48.4300   26.9950  128.4020 O   0  0  0  0  0  0  0  0  0  0  0  0
   51.6370   27.0330  129.0560 O   0  0  0  0  0  0  0  0  0  0  0  0
   51.5490   30.5910  129.9060 O   0  0  0  0  0  0  0  0  0  0  0  0
  1  7  1  0
  1  8  1  0
  1  9  1  0
  1 21  1  0
  2  3  1  0
  2 10  1  0
  2 11  1  0
  2 21  1  0
  3 12  1  0
  3 13  1  0
  3 22  1  0
  4  5  1  0
  4 14  1  0
  4 15  1  0
  4 22  1  0
  5 16  1  0
  5 17  1  0
  5 23  1  0
  6 18  1  0
  6 19  1  0
  6 20  1  0
  6 23  1  0
M  END
$$$$
