5ise_C_DXE_504
     RDKit          3D

 16 15  0  0  0  0  0  0  0  0999 V2000
    8.8750   36.2220  161.4040 C   0  0  0  0  0  0  0  0  0  0  0  0
   11.0400   36.5690  160.4650 C   0  0  0  0  0  0  0  0  0  0  0  0
   12.0060   37.7080  160.1030 C   0  0  0  0  0  0  0  0  0  0  0  0
   14.2730   38.3700  160.3170 C   0  0  0  0  0  0  0  0  0  0  0  0
    8.7070   35.4200  160.8860 H   0  0  0  0  0  0  0  0  0  0  0  0
    9.2830   35.9810  162.2510 H   0  0  0  0  0  0  0  0  0  0  0  0
    8.0360   36.6820  161.5690 H   0  0  0  0  0  0  0  0  0  0  0  0
   11.3560   36.1250  161.2670 H   0  0  0  0  0  0  0  0  0  0  0  0
   11.0130   35.9290  159.7360 H   0  0  0  0  0  0  0  0  0  0  0  0
   11.9520   37.8840  159.1510 H   0  0  0  0  0  0  0  0  0  0  0  0
   11.7580   38.5070  160.5930 H   0  0  0  0  0  0  0  0  0  0  0  0
   14.3720   38.6120  159.3830 H   0  0  0  0  0  0  0  0  0  0  0  0
   13.9810   39.1440  160.8230 H   0  0  0  0  0  0  0  0  0  0  0  0
   15.1250   38.0610  160.6630 H   0  0  0  0  0  0  0  0  0  0  0  0
    9.7400   37.0680  160.6920 O   0  0  0  0  0  0  0  0  0  0  0  0
   13.3210   37.3450  160.4370 O   0  0  0  0  0  0  0  0  0  0  0  0
  1  5  1  0
  1  6  1  0
  1  7  1  0
  1 15  1  0
  2  3  1  0
  2  8  1  0
  2  9  1  0
  2 15  1  0
  3 10  1  0
  3 11  1  0
  3 16  1  0
  4 12  1  0
  4 13  1  0
  4 14  1  0
  4 16  1  0
M  END
$$$$
