5ise_C_6D2_501
     RDKit          3D

 61 79  0  0  0  0  0  0  0  0999 V2000
   23.2280   36.2550  173.8560 C   0  0  0  0  0  0  0  0  0  0  0  0
   27.2850   39.4290  180.2830 C   0  0  0  0  0  0  0  0  0  0  0  0
   25.2670   34.3130  178.1980 C   0  0  0  0  0  6  0  0  0  0  0  0
   24.5450   34.1940  179.5890 C   0  0  0  0  0  0  0  0  0  0  0  0
   23.6980   32.9490  179.7110 C   0  0  0  0  0  0  0  0  0  0  0  0
   24.6990   30.6750  179.9160 C   0  0  0  0  0  3  0  0  0  0  0  0
   26.8950   43.4890  182.1570 C   0  0  0  0  0  3  0  0  0  0  0  0
   28.3580   38.3370  180.0870 C   0  0  0  0  0  0  0  0  0  0  0  0
   27.9530   37.6730  178.8140 C   0  0  0  0  0  0  0  0  0  0  0  0
   26.9710   41.1210  182.1050 C   0  0  0  0  0  3  0  0  0  0  0  0
   26.4980   37.8880  178.6610 C   0  0  0  0  0  0  0  0  0  0  0  0
   26.7420   41.0990  183.4600 C   0  0  0  0  0  3  0  0  0  0  0  0
   25.6210   36.6070  178.8660 C   0  0  0  0  0  5  0  0  0  0  0  0
   26.6000   42.3380  184.1610 C   0  0  0  0  0  3  0  0  0  0  0  0
   26.9390   39.0090  182.7080 C   0  0  0  0  0  3  0  0  0  0  0  0
   23.9850   37.3780  174.5150 C   0  0  0  0  0  6  0  0  0  0  0  0
   25.0520   36.8700  175.5320 C   0  0  0  0  0  6  0  0  0  0  0  0
   24.5030   36.1010  176.7580 C   0  0  0  0  0  0  0  0  0  0  0  0
   23.3860   38.6870  175.7820 H   0  0  0  0  0  0  0  0  0  0  0  0
   27.4940   40.2140  179.7540 H   0  0  0  0  0  0  0  0  0  0  0  0
   24.7270   33.8590  177.5290 H   0  0  0  0  0  2  0  0  0  0  0  0
   26.1010   33.8460  178.2710 H   0  0  0  0  0  0  0  0  0  0  0  0
   24.0160   30.9820  177.9810 H   0  0  0  0  0  0  0  0  0  0  0  0
   23.9850   34.9680  179.7190 H   0  0  0  0  0  0  0  0  0  0  0  0
   25.2440   34.1770  180.3130 H   0  0  0  0  0  0  0  0  0  0  0  0
   25.5390   28.9240  180.3560 H   0  0  0  0  0  0  0  0  0  0  0  0
   22.8530   33.1870  180.1570 H   0  0  0  0  0  0  0  0  0  0  0  0
   23.4910   32.6050  178.8000 H   0  0  0  0  0  0  0  0  0  0  0  0
   24.5400   32.0810  181.3850 H   0  0  0  0  0  0  0  0  0  0  0  0
   22.6220   38.7090  174.4920 H   0  0  0  0  0  0  0  0  0  0  0  0
   28.3270   37.7190  180.8120 H   0  0  0  0  0  0  0  0  0  0  0  0
   29.6270   39.5770  179.3890 H   0  0  0  0  0  0  0  0  0  0  0  0
   26.9410   44.3290  181.6830 H   0  0  0  0  0  0  0  0  0  0  0  0
   28.1660   36.6960  178.8300 H   0  0  0  0  0  0  0  0  0  0  0  0
   28.2310   39.1070  177.5240 H   0  0  0  0  0  0  0  0  0  0  0  0
   26.3090   38.2730  177.7800 H   0  0  0  0  0  0  0  0  0  0  0  0
   24.6700   36.9160  179.0670 H   0  0  0  0  0  2  0  0  0  0  0  0
   25.9410   36.1400  179.6120 H   0  0  0  0  0  0  0  0  0  0  0  0
   25.5360   42.2030  185.8820 H   0  0  0  0  0  0  0  0  0  0  0  0
   27.1100   42.4720  186.1490 H   0  0  0  0  0  0  0  0  0  0  0  0
   26.9720   38.0220  182.6840 H   0  0  0  0  0  0  0  0  0  0  0  0
   24.4160   37.8870  173.8440 H   0  0  0  0  0  0  0  0  0  0  0  0
   25.5470   37.6480  175.8570 H   0  0  0  0  0  2  0  0  0  0  0  0
   25.6670   36.3090  175.0680 H   0  0  0  0  0  2  0  0  0  0  0  0
   23.8690   36.6710  177.2230 Hg  0  0  0  0  0 10  0  0  0  0  0  0
   24.0240   35.3080  176.4380 Hg  0  0  0  0  0  9  0  0  0  0  0  0
   23.0020   38.1680  175.1160 N   0  0  0  0  0  4  0  0  0  0  0  0
   26.6870   43.5070  183.4720 N   0  0  0  0  0  2  0  0  0  0  0  0
   24.4150   30.3710  178.4960 N   0  0  0  0  0  2  0  0  0  0  0  0
   25.2980   29.7470  180.7090 N   0  0  0  0  0  2  0  0  0  0  0  0
   24.3510   31.9210  180.4780 N   0  0  0  0  0  0  0  0  0  0  0  0
   27.0350   42.3090  181.4410 N   0  0  0  0  0  2  0  0  0  0  0  0
   26.3800   42.3350  185.5510 N   0  0  0  0  0  0  0  0  0  0  0  0
   26.7350   39.7720  183.8200 N   0  0  0  0  0  2  0  0  0  0  0  0
   27.1220   39.8070  181.6770 N   0  0  0  0  0  0  0  0  0  0  0  0
   25.5650   35.6630  177.7150 N   0  0  0  0  0  5  0  0  0  0  0  0
   21.9750   36.0580  174.1560 O   0  0  0  0  0  1  0  0  0  0  0  0
   29.6250   38.9140  180.0240 O   0  0  0  0  0  0  0  0  0  0  0  0
   28.6040   38.3140  177.6720 O   0  0  0  0  0  0  0  0  0  0  0  0
   26.0600   38.8040  179.7530 O   0  0  0  0  0  0  0  0  0  0  0  0
   23.8400   35.5200  173.0330 O   0  0  0  0  0  1  0  0  0  0  0  0
  1 16  1  0
  1 46  1  0
  1 57  1  0
  1 61  1  0
  2  8  1  0
  2 20  1  0
  2 55  1  0
  2 60  1  0
  3  4  1  0
  3 21  1  0
  3 22  1  0
  3 45  1  0
  3 46  1  0
  3 56  1  0
  4  5  1  0
  4 24  1  0
  4 25  1  0
  5 27  1  0
  5 28  1  0
  5 51  1  0
  6 49  1  0
  6 50  1  0
  6 51  1  0
  7 33  1  0
  7 48  1  0
  7 52  1  0
  8  9  1  0
  8 31  1  0
  8 58  1  0
  9 11  1  0
  9 34  1  0
  9 59  1  0
 10 12  1  0
 10 52  1  0
 10 55  1  0
 11 13  1  0
 11 36  1  0
 11 60  1  0
 12 14  1  0
 12 54  1  0
 13 37  1  0
 13 38  1  0
 13 45  1  0
 13 56  1  0
 14 48  1  0
 14 53  1  0
 15 41  1  0
 15 54  1  0
 15 55  1  0
 16 17  1  0
 16 42  1  0
 16 45  1  0
 16 46  1  0
 16 47  1  0
 17 18  1  0
 17 43  1  0
 17 44  1  0
 17 45  1  0
 17 46  1  0
 18 45  1  0
 18 46  1  0
 18 56  1  0
 19 47  1  0
 21 46  1  0
 23 49  1  0
 26 50  1  0
 29 51  1  0
 30 47  1  0
 32 58  1  0
 35 59  1  0
 37 45  1  0
 39 53  1  0
 40 53  1  0
 43 45  1  0
 44 46  1  0
 45 46  1  0
 45 47  1  0
 45 56  1  0
 46 56  1  0
M  END
$$$$
