5isf_C_DXE_504
     RDKit          3D

 16 15  0  0  0  0  0  0  0  0999 V2000
   -1.2630   39.5940  178.1080 C   0  0  0  0  0  0  0  0  0  0  0  0
    0.3400   41.2960  178.2250 C   0  0  0  0  0  0  0  0  0  0  0  0
    1.7780   41.5940  178.6440 C   0  0  0  0  0  0  0  0  0  0  0  0
    3.0400   43.4360  179.3890 C   0  0  0  0  0  0  0  0  0  0  0  0
   -1.3850   39.7920  177.1670 H   0  0  0  0  0  0  0  0  0  0  0  0
   -1.3890   38.6440  178.2580 H   0  0  0  0  0  0  0  0  0  0  0  0
   -1.9110   40.0920  178.6300 H   0  0  0  0  0  0  0  0  0  0  0  0
    0.2410   41.4610  177.2750 H   0  0  0  0  0  0  0  0  0  0  0  0
   -0.2640   41.8730  178.7170 H   0  0  0  0  0  0  0  0  0  0  0  0
    2.3920   41.1460  178.0410 H   0  0  0  0  0  0  0  0  0  0  0  0
    1.9250   41.2800  179.5500 H   0  0  0  0  0  0  0  0  0  0  0  0
    3.8470   42.9390  179.1830 H   0  0  0  0  0  0  0  0  0  0  0  0
    3.1880   44.3790  179.2180 H   0  0  0  0  0  0  0  0  0  0  0  0
    2.8130   43.3100  180.3240 H   0  0  0  0  0  0  0  0  0  0  0  0
    0.0310   39.9590  178.4980 O   0  0  0  0  0  0  0  0  0  0  0  0
    1.9900   42.9760  178.5870 O   0  0  0  0  0  0  0  0  0  0  0  0
  1  5  1  0
  1  6  1  0
  1  7  1  0
  1 15  1  0
  2  3  1  0
  2  8  1  0
  2  9  1  0
  2 15  1  0
  3 10  1  0
  3 11  1  0
  3 16  1  0
  4 12  1  0
  4 13  1  0
  4 14  1  0
  4 16  1  0
M  END
$$$$
