5isg_D_6D6_506
     RDKit          3D

 57 59  0  0  0  0  0  0  0  0999 V2000
   52.5490   19.8120  186.1320 C   0  0  0  0  0  0  0  0  0  0  0  0
   52.9260   16.9840  190.3960 C   0  0  0  0  0  0  0  0  0  0  0  0
   52.2730   14.6670  191.2490 C   0  0  0  0  0  3  0  0  0  0  0  0
   51.6790   20.2390  191.4420 C   0  0  0  0  0  0  0  0  0  0  0  0
   52.0290   22.3200  192.5590 C   0  0  0  0  0  0  0  0  0  0  0  0
   50.6350   22.3210  191.9510 C   0  0  0  0  0  0  0  0  0  0  0  0
   54.3940   26.4620  193.4980 C   0  0  0  0  0  3  0  0  0  0  0  0
   54.1550   25.0600  195.3450 C   0  0  0  0  0  3  0  0  0  0  0  0
   53.2520   24.3630  193.2820 C   0  0  0  0  0  3  0  0  0  0  0  0
   51.3780   19.3320  187.0180 C   0  0  0  0  0  0  0  0  0  0  0  0
   51.8280   18.3430  188.1110 C   0  0  0  0  0  0  0  0  0  0  0  0
   51.4470   17.5340  190.3290 C   0  0  0  0  0  0  0  0  0  0  0  0
   53.1170   15.9610  191.4920 C   0  0  0  0  0  0  0  0  0  0  0  0
   51.9850   19.8940  189.9100 C   0  0  0  0  0  0  0  0  0  0  0  0
   50.3740   20.9260  191.5900 C   0  0  0  0  0  0  0  0  0  0  0  0
   52.6760   24.3010  191.1640 C   0  0  0  0  0  3  0  0  0  0  0  0
   53.6970   25.5180  192.6970 C   0  0  0  0  0  3  0  0  0  0  0  0
   53.3720   19.7450  186.6240 H   0  0  0  0  0  0  0  0  0  0  0  0
   51.6620   20.6500  189.3730 H   0  0  0  0  0  0  0  0  0  0  0  0
   52.9640   19.8030  189.7700 H   0  0  0  0  0  0  0  0  0  0  0  0
   49.8810   20.8780  190.7570 H   0  0  0  0  0  0  0  0  0  0  0  0
   52.2950   24.0100  190.3040 H   0  0  0  0  0  0  0  0  0  0  0  0
   52.2440   18.2060  185.1130 H   0  0  0  0  0  0  0  0  0  0  0  0
   53.5240   18.8830  184.7260 H   0  0  0  0  0  0  0  0  0  0  0  0
   53.1400   16.5580  189.5270 H   0  0  0  0  0  0  0  0  0  0  0  0
   53.5480   17.7360  190.5490 H   0  0  0  0  0  0  0  0  0  0  0  0
   52.3990   20.7490  185.8730 H   0  0  0  0  0  0  0  0  0  0  0  0
   55.0070   16.1130  191.0050 H   0  0  0  0  0  0  0  0  0  0  0  0
   54.8100   15.7310  192.4370 H   0  0  0  0  0  0  0  0  0  0  0  0
   51.6770   19.4160  191.9580 H   0  0  0  0  0  0  0  0  0  0  0  0
   51.9750   22.1640  193.5250 H   0  0  0  0  0  0  0  0  0  0  0  0
   50.6240   22.8820  191.1630 H   0  0  0  0  0  0  0  0  0  0  0  0
   49.7350   22.3350  193.6510 H   0  0  0  0  0  0  0  0  0  0  0  0
   50.1750   20.0550  193.3140 H   0  0  0  0  0  0  0  0  0  0  0  0
   55.7810   27.8530  192.9030 H   0  0  0  0  0  0  0  0  0  0  0  0
   50.7110   18.9130  186.4640 H   0  0  0  0  0  0  0  0  0  0  0  0
   54.2820   28.2900  192.5800 H   0  0  0  0  0  0  0  0  0  0  0  0
   54.3190   24.8860  196.3110 H   0  0  0  0  0  0  0  0  0  0  0  0
   50.9840   20.1090  187.4560 H   0  0  0  0  0  0  0  0  0  0  0  0
   52.7970   18.3310  188.1410 H   0  0  0  0  0  0  0  0  0  0  0  0
   51.5050   17.4450  187.8810 H   0  0  0  0  0  0  0  0  0  0  0  0
   50.8580   16.8070  189.9860 H   0  0  0  0  0  0  0  0  0  0  0  0
   51.1550   17.7780  191.2240 H   0  0  0  0  0  0  0  0  0  0  0  0
   52.8460   16.3500  192.3350 H   0  0  0  0  0  0  0  0  0  0  0  0
   52.6290   19.0080  184.9570 N   0  0  0  0  0  0  0  0  0  0  0  0
   51.3110   18.7080  189.4350 N   0  0  0  0  0  0  0  0  0  0  0  0
   54.5160   15.5960  191.5850 N   0  0  0  0  0  0  0  0  0  0  0  0
   52.6060   23.6280  192.3170 N   0  0  0  0  0  0  0  0  0  0  0  0
   53.3260   25.4620  191.3840 N   0  0  0  0  0  2  0  0  0  0  0  0
   54.8750   27.6800  192.9250 N   0  0  0  0  0  0  0  0  0  0  0  0
   54.6030   26.2010  194.8000 N   0  0  0  0  0  2  0  0  0  0  0  0
   53.4870   24.1360  194.6070 N   0  0  0  0  0  2  0  0  0  0  0  0
   51.2590   14.4200  191.9830 O   0  0  0  0  0  1  0  0  0  0  0  0
   52.6000   13.8550  190.3150 O   0  0  0  0  0  1  0  0  0  0  0  0
   52.7210   21.1480  191.9290 O   0  0  0  0  0  0  0  0  0  0  0  0
   49.6790   22.8100  192.8830 O   0  0  0  0  0  0  0  0  0  0  0  0
   49.6240   20.2650  192.6360 O   0  0  0  0  0  0  0  0  0  0  0  0
  1 10  1  0
  1 18  1  0
  1 27  1  0
  1 45  1  0
  2 12  1  0
  2 13  1  0
  2 25  1  0
  2 26  1  0
  3 13  1  0
  3 53  1  0
  3 54  1  0
  4 14  1  0
  4 15  1  0
  4 30  1  0
  4 55  1  0
  5  6  1  0
  5 31  1  0
  5 48  1  0
  5 55  1  0
  6 15  1  0
  6 32  1  0
  6 56  1  0
  7 17  1  0
  7 50  1  0
  7 51  1  0
  8 38  1  0
  8 51  1  0
  8 52  1  0
  9 17  1  0
  9 48  1  0
  9 52  1  0
 10 11  1  0
 10 36  1  0
 10 39  1  0
 11 40  1  0
 11 41  1  0
 11 46  1  0
 12 42  1  0
 12 43  1  0
 12 46  1  0
 13 44  1  0
 13 47  1  0
 14 19  1  0
 14 20  1  0
 14 46  1  0
 15 21  1  0
 15 57  1  0
 16 22  1  0
 16 48  1  0
 16 49  1  0
 17 49  1  0
 23 45  1  0
 24 45  1  0
 28 47  1  0
 29 47  1  0
 33 56  1  0
 34 57  1  0
 35 50  1  0
 37 50  1  0
M  END
$$$$
