5ish_C_765_501
     RDKit          3D

 51 54  0  0  0  0  0  0  0  0999 V2000
   24.2840   36.4840  177.1870 C   0  0  0  0  0  0  0  0  0  0  0  0
   26.9010   41.1110  182.4260 C   0  0  0  0  0  3  0  0  0  0  0  0
   26.7100   41.1560  183.8070 C   0  0  0  0  0  3  0  0  0  0  0  0
   26.9000   39.0650  183.2010 C   0  0  0  0  0  3  0  0  0  0  0  0
   26.7890   43.4450  182.3890 C   0  0  0  0  0  3  0  0  0  0  0  0
   26.5610   42.3870  184.4470 C   0  0  0  0  0  3  0  0  0  0  0  0
   25.0960   34.5640  178.4700 C   0  0  0  0  0  0  0  0  0  0  0  0
   26.2580   35.1420  177.8700 C   0  0  0  0  0  0  0  0  0  0  0  0
   24.8280   36.7260  175.7760 C   0  0  0  0  0  0  0  0  0  0  0  0
   23.8890   37.2890  174.7260 C   0  0  0  0  0  0  0  0  0  0  0  0
   23.1980   36.1120  174.1920 C   0  0  0  0  0  3  0  0  0  0  0  0
   25.4480   36.7540  179.4790 C   0  0  0  0  0  0  0  0  0  0  0  0
   26.2790   37.9060  179.2080 C   0  0  0  0  0  0  0  0  0  0  0  0
   27.7630   37.6380  179.3700 C   0  0  0  0  0  0  0  0  0  0  0  0
   28.1820   38.3640  180.5300 C   0  0  0  0  0  0  0  0  0  0  0  0
   27.2130   39.3760  180.7120 C   0  0  0  0  0  0  0  0  0  0  0  0
   23.8930   37.3690  177.5160 H   0  0  0  0  0  0  0  0  0  0  0  0
   24.6030   37.0540  179.8510 H   0  0  0  0  0  0  0  0  0  0  0  0
   26.0790   38.2670  178.3240 H   0  0  0  0  0  0  0  0  0  0  0  0
   27.9380   36.6610  179.4970 H   0  0  0  0  0  0  0  0  0  0  0  0
   28.1310   38.9010  178.0560 H   0  0  0  0  0  0  0  0  0  0  0  0
   28.1400   37.7640  181.2840 H   0  0  0  0  0  0  0  0  0  0  0  0
   29.4760   39.3530  179.5580 H   0  0  0  0  0  0  0  0  0  0  0  0
   27.4880   40.1570  180.1840 H   0  0  0  0  0  0  0  0  0  0  0  0
   26.9460   38.0920  183.2380 H   0  0  0  0  0  0  0  0  0  0  0  0
   26.8140   44.2890  181.8640 H   0  0  0  0  0  0  0  0  0  0  0  0
   26.3450   43.2700  186.2700 H   0  0  0  0  0  0  0  0  0  0  0  0
   23.5490   35.8530  177.1000 H   0  0  0  0  0  0  0  0  0  0  0  0
   26.2710   41.6950  186.3090 H   0  0  0  0  0  0  0  0  0  0  0  0
   25.1980   34.2570  179.3900 H   0  0  0  0  0  0  0  0  0  0  0  0
   24.4980   34.0690  177.8440 H   0  0  0  0  0  0  0  0  0  0  0  0
   26.3490   34.9830  176.9040 H   0  0  0  0  0  0  0  0  0  0  0  0
   27.0820   35.1670  178.4520 H   0  0  0  0  0  0  0  0  0  0  0  0
   25.1730   35.8690  175.4310 H   0  0  0  0  0  0  0  0  0  0  0  0
   25.5830   37.3490  175.8520 H   0  0  0  0  0  0  0  0  0  0  0  0
   24.3810   37.7140  174.0280 H   0  0  0  0  0  0  0  0  0  0  0  0
   23.4470   38.8160  175.9400 H   0  0  0  0  0  0  0  0  0  0  0  0
   22.6760   38.8440  174.6020 H   0  0  0  0  0  0  0  0  0  0  0  0
   25.8870   36.1940  180.1200 H   0  0  0  0  0  0  0  0  0  0  0  0
   22.9800   38.2900  175.2820 N   0  0  0  0  0  0  0  0  0  0  0  0
   27.0270   39.8070  182.1000 N   0  0  0  0  0  0  0  0  0  0  0  0
   26.7160   39.8830  184.2500 N   0  0  0  0  0  2  0  0  0  0  0  0
   26.9330   42.2700  181.7460 N   0  0  0  0  0  2  0  0  0  0  0  0
   26.6030   43.5110  183.7120 N   0  0  0  0  0  2  0  0  0  0  0  0
   26.3690   42.4480  185.8390 N   0  0  0  0  0  0  0  0  0  0  0  0
   25.1820   35.9710  178.2660 N   0  0  0  0  0  4  0  0  0  0  0  0
   22.0180   35.8660  174.5560 O   0  0  0  0  0  1  0  0  0  0  0  0
   28.4030   38.1050  178.2340 O   0  0  0  0  0  0  0  0  0  0  0  0
   29.4680   38.9390  180.3170 O   0  0  0  0  0  0  0  0  0  0  0  0
   25.9730   38.8700  180.1410 O   0  0  0  0  0  0  0  0  0  0  0  0
   23.7720   35.3660  173.3990 O   0  0  0  0  0  1  0  0  0  0  0  0
  1  9  1  0
  1 17  1  0
  1 28  1  0
  1 46  1  0
  2  3  1  0
  2 41  1  0
  2 43  1  0
  3  6  1  0
  3 42  1  0
  4 25  1  0
  4 41  1  0
  4 42  1  0
  5 26  1  0
  5 43  1  0
  5 44  1  0
  6 44  1  0
  6 45  1  0
  7  8  1  0
  7 30  1  0
  7 31  1  0
  7 46  1  0
  8 32  1  0
  8 33  1  0
  8 46  1  0
  9 10  1  0
  9 34  1  0
  9 35  1  0
 10 11  1  0
 10 36  1  0
 10 40  1  0
 11 47  1  0
 11 51  1  0
 12 13  1  0
 12 18  1  0
 12 39  1  0
 12 46  1  0
 13 14  1  0
 13 19  1  0
 13 50  1  0
 14 15  1  0
 14 20  1  0
 14 48  1  0
 15 16  1  0
 15 22  1  0
 15 49  1  0
 16 24  1  0
 16 41  1  0
 16 50  1  0
 21 48  1  0
 23 49  1  0
 27 45  1  0
 29 45  1  0
 37 40  1  0
 38 40  1  0
M  END
$$$$
