5isi_C_5N5_501
     RDKit          3D

 33 35  0  0  0  0  0  0  0  0999 V2000
   27.0470   39.2580  180.9910 C   0  0  0  0  0  0  0  0  0  0  0  0
   26.9010   43.4170  182.7350 C   0  0  0  0  0  3  0  0  0  0  0  0
   28.2780   38.4260  180.8410 C   0  0  0  0  0  0  0  0  0  0  0  0
   28.0210   37.7410  179.5440 C   0  0  0  0  0  0  0  0  0  0  0  0
   26.9300   41.0510  182.7800 C   0  0  0  0  0  3  0  0  0  0  0  0
   26.5410   37.6410  179.4050 C   0  0  0  0  0  0  0  0  0  0  0  0
   26.8430   41.0800  184.1560 C   0  0  0  0  0  3  0  0  0  0  0  0
   26.0860   36.1940  179.4860 C   0  0  0  0  0  0  0  0  0  0  0  0
   26.7880   42.3410  184.8110 C   0  0  0  0  0  3  0  0  0  0  0  0
   26.9100   38.9290  183.5020 C   0  0  0  0  0  3  0  0  0  0  0  0
   29.3130   39.9140  180.2370 H   0  0  0  0  0  0  0  0  0  0  0  0
   27.1170   40.0580  180.4110 H   0  0  0  0  0  0  0  0  0  0  0  0
   26.9210   37.9240  183.5170 H   0  0  0  0  0  0  0  0  0  0  0  0
   26.9220   44.2370  182.2310 H   0  0  0  0  0  0  0  0  0  0  0  0
   26.6610   41.6230  186.7200 H   0  0  0  0  0  0  0  0  0  0  0  0
   26.6870   43.2130  186.6390 H   0  0  0  0  0  0  0  0  0  0  0  0
   28.3420   37.7730  181.5930 H   0  0  0  0  0  0  0  0  0  0  0  0
   28.4270   36.8650  179.5200 H   0  0  0  0  0  0  0  0  0  0  0  0
   28.0420   39.2190  178.4480 H   0  0  0  0  0  0  0  0  0  0  0  0
   26.2700   38.0250  178.5900 H   0  0  0  0  0  0  0  0  0  0  0  0
   26.0910   35.9070  180.4340 H   0  0  0  0  0  0  0  0  0  0  0  0
   26.7000   35.6330  178.9790 H   0  0  0  0  0  0  0  0  0  0  0  0
   24.2260   35.9020  179.6350 H   0  0  0  0  0  0  0  0  0  0  0  0
   24.7910   35.3290  178.3870 H   0  0  0  0  0  0  0  0  0  0  0  0
   26.8190   43.4770  184.0780 N   0  0  0  0  0  2  0  0  0  0  0  0
   26.9580   42.2290  182.0750 N   0  0  0  0  0  2  0  0  0  0  0  0
   24.8060   36.0460  178.9660 N   0  0  0  0  0  0  0  0  0  0  0  0
   26.7020   42.4060  186.2210 N   0  0  0  0  0  0  0  0  0  0  0  0
   26.8320   39.7350  184.5920 N   0  0  0  0  0  2  0  0  0  0  0  0
   26.9790   39.7060  182.3790 N   0  0  0  0  0  0  0  0  0  0  0  0
   29.4530   39.2210  180.7760 O   0  0  0  0  0  0  0  0  0  0  0  0
   28.4930   38.4810  178.5080 O   0  0  0  0  0  0  0  0  0  0  0  0
   25.9820   38.3990  180.5080 O   0  0  0  0  0  0  0  0  0  0  0  0
  1  3  1  0
  1 12  1  0
  1 30  1  0
  1 33  1  0
  2 14  1  0
  2 25  1  0
  2 26  1  0
  3  4  1  0
  3 17  1  0
  3 31  1  0
  4  6  1  0
  4 18  1  0
  4 32  1  0
  5  7  1  0
  5 26  1  0
  5 30  1  0
  6  8  1  0
  6 20  1  0
  6 33  1  0
  7  9  1  0
  7 29  1  0
  8 21  1  0
  8 22  1  0
  8 27  1  0
  9 25  1  0
  9 28  1  0
 10 13  1  0
 10 29  1  0
 10 30  1  0
 11 31  1  0
 15 28  1  0
 16 28  1  0
 19 32  1  0
 23 27  1  0
 24 27  1  0
M  END
$$$$
