5isi_A_DXE_503
     RDKit          3D

 16 15  0  0  0  0  0  0  0  0999 V2000
   41.8960   27.7490  126.3840 C   0  0  0  0  0  0  0  0  0  0  0  0
   43.4870   29.4810  126.2240 C   0  0  0  0  0  0  0  0  0  0  0  0
   44.8470   29.8850  126.7940 C   0  0  0  0  0  0  0  0  0  0  0  0
   46.6620   28.7930  127.8350 C   0  0  0  0  0  0  0  0  0  0  0  0
   41.5860   27.9640  125.4900 H   0  0  0  0  0  0  0  0  0  0  0  0
   41.3580   28.2240  127.0360 H   0  0  0  0  0  0  0  0  0  0  0  0
   41.8170   26.7940  126.5330 H   0  0  0  0  0  0  0  0  0  0  0  0
   43.4890   29.6080  125.2620 H   0  0  0  0  0  0  0  0  0  0  0  0
   42.7940   30.0320  126.6200 H   0  0  0  0  0  0  0  0  0  0  0  0
   45.2420   30.5720  126.2340 H   0  0  0  0  0  0  0  0  0  0  0  0
   44.7310   30.2290  127.6940 H   0  0  0  0  0  0  0  0  0  0  0  0
   47.1330   27.9450  127.8530 H   0  0  0  0  0  0  0  0  0  0  0  0
   47.2930   29.5090  127.6570 H   0  0  0  0  0  0  0  0  0  0  0  0
   46.2350   28.9440  128.6920 H   0  0  0  0  0  0  0  0  0  0  0  0
   43.2360   28.1330  126.5170 O   0  0  0  0  0  0  0  0  0  0  0  0
   45.6910   28.7670  126.8270 O   0  0  0  0  0  0  0  0  0  0  0  0
  1  5  1  0
  1  6  1  0
  1  7  1  0
  1 15  1  0
  2  3  1  0
  2  8  1  0
  2  9  1  0
  2 15  1  0
  3 10  1  0
  3 11  1  0
  3 16  1  0
  4 12  1  0
  4 13  1  0
  4 14  1  0
  4 16  1  0
M  END
$$$$
