5k8v_B_6RE_501
     RDKit          3D

 42 44  0  0  0  0  0  0  0  0999 V2000
   24.8600   23.6600  116.2490 C   0  0  0  0  0  0  0  0  0  0  0  0
   22.7290   26.3090  113.4930 C   0  0  0  0  0  3  0  0  0  0  0  0
   26.3220   23.5740  116.6960 C   0  0  0  0  0  0  0  0  0  0  0  0
   26.4010   22.1080  117.1130 C   0  0  0  0  0  0  0  0  0  0  0  0
   23.6240   25.7130  115.4150 C   0  0  0  0  0  3  0  0  0  0  0  0
   25.0530   21.9050  117.7910 C   0  0  0  0  0  0  0  0  0  0  0  0
   23.2160   26.8850  116.0330 C   0  0  0  0  0  3  0  0  0  0  0  0
   24.9820   22.3130  119.2460 C   0  0  0  0  0  0  0  0  0  0  0  0
   22.5070   27.8080  115.2390 C   0  0  0  0  0  3  0  0  0  0  0  0
   25.0350   21.0960  120.1460 C   0  0  0  0  0  0  0  0  0  0  0  0
   24.2020   25.7460  117.5250 C   0  0  0  0  0  3  0  0  0  0  0  0
   24.1250   21.0210  122.4570 C   0  0  0  0  0  3  0  0  0  0  0  0
   24.7130   23.3320  115.2210 H   0  0  0  0  0  0  0  0  0  0  0  0
   22.5070   26.1040  112.4460 H   0  0  0  0  0  0  0  0  0  0  0  0
   26.5340   24.2300  117.5390 H   0  0  0  0  0  0  0  0  0  0  0  0
   27.2670   21.8840  117.7340 H   0  0  0  0  0  0  0  0  0  0  0  0
   24.6910   20.8910  117.6290 H   0  0  0  0  0  0  0  0  0  0  0  0
   24.0950   22.9130  119.4440 H   0  0  0  0  0  0  0  0  0  0  0  0
   25.7950   22.9860  119.5160 H   0  0  0  0  0  0  0  0  0  0  0  0
   25.9330   20.5300  119.9010 H   0  0  0  0  0  0  0  0  0  0  0  0
   24.2010   20.4290  119.9340 H   0  0  0  0  0  0  0  0  0  0  0  0
   24.6250   25.4330  118.4790 H   0  0  0  0  0  0  0  0  0  0  0  0
   22.2230   29.2970  116.6390 H   0  0  0  0  0  0  0  0  0  0  0  0
   21.5630   29.6100  115.0610 H   0  0  0  0  0  0  0  0  0  0  0  0
   25.7220   22.1050  121.8510 H   0  0  0  0  0  0  0  0  0  0  0  0
   23.0590   19.8170  121.1650 H   0  0  0  0  0  0  0  0  0  0  0  0
   24.9110   22.0820  124.0370 H   0  0  0  0  0  0  0  0  0  0  0  0
   23.5640   21.1330  124.4370 H   0  0  0  0  0  0  0  0  0  0  0  0
   22.4770   19.8040  122.7500 H   0  0  0  0  0  0  0  0  0  0  0  0
   27.2720   23.0460  115.0820 H   0  0  0  0  0  0  0  0  0  0  0  0
   25.7410   21.3010  115.4180 H   0  0  0  0  0  0  0  0  0  0  0  0
   22.2710   27.4780  113.9510 N   0  0  0  0  0  2  0  0  0  0  0  0
   24.2040   21.4330  123.7080 N   0  0  0  0  0  0  0  0  0  0  0  0
   23.4160   25.3640  114.1410 N   0  0  0  0  0  2  0  0  0  0  0  0
   22.0690   28.9880  115.6840 N   0  0  0  0  0  0  0  0  0  0  0  0
   23.5880   26.8950  117.3670 N   0  0  0  0  0  2  0  0  0  0  0  0
   24.9980   21.4570  121.5590 N   0  0  0  0  0  0  0  0  0  0  0  0
   24.2610   24.9830  116.3900 N   0  0  0  0  0  0  0  0  0  0  0  0
   23.1730   20.1730  122.1090 N   0  0  0  0  0  0  0  0  0  0  0  0
   27.2090   23.8740  115.6260 O   0  0  0  0  0  0  0  0  0  0  0  0
   26.5470   21.2400  115.9950 O   0  0  0  0  0  0  0  0  0  0  0  0
   24.1360   22.7510  117.0600 O   0  0  0  0  0  0  0  0  0  0  0  0
  1  3  1  0
  1 13  1  0
  1 38  1  0
  1 42  1  0
  2 14  1  0
  2 32  1  0
  2 34  1  0
  3  4  1  0
  3 15  1  0
  3 40  1  0
  4  6  1  0
  4 16  1  0
  4 41  1  0
  5  7  1  0
  5 34  1  0
  5 38  1  0
  6  8  1  0
  6 17  1  0
  6 42  1  0
  7  9  1  0
  7 36  1  0
  8 10  1  0
  8 18  1  0
  8 19  1  0
  9 32  1  0
  9 35  1  0
 10 20  1  0
 10 21  1  0
 10 37  1  0
 11 22  1  0
 11 36  1  0
 11 38  1  0
 12 33  1  0
 12 37  1  0
 12 39  1  0
 23 35  1  0
 24 35  1  0
 25 37  1  0
 26 39  1  0
 27 33  1  0
 28 33  1  0
 29 39  1  0
 30 40  1  0
 31 41  1  0
M  END
$$$$
