5k8w_C_DXE_507
     RDKit          3D

 16 15  0  0  0  0  0  0  0  0999 V2000
   -1.7660   38.9570  178.5800 C   0  0  0  0  0  0  0  0  0  0  0  0
   -0.0860   40.6280  178.5800 C   0  0  0  0  0  0  0  0  0  0  0  0
    1.3720   40.8760  178.9740 C   0  0  0  0  0  0  0  0  0  0  0  0
    2.2530   42.8730  179.8740 C   0  0  0  0  0  0  0  0  0  0  0  0
   -1.9120   38.0220  178.7940 H   0  0  0  0  0  0  0  0  0  0  0  0
   -1.8950   39.0950  177.6280 H   0  0  0  0  0  0  0  0  0  0  0  0
   -2.3970   39.5040  179.0740 H   0  0  0  0  0  0  0  0  0  0  0  0
   -0.1850   40.7450  177.6220 H   0  0  0  0  0  0  0  0  0  0  0  0
   -0.6570   41.2610  179.0430 H   0  0  0  0  0  0  0  0  0  0  0  0
    1.9530   40.3220  178.4300 H   0  0  0  0  0  0  0  0  0  0  0  0
    1.4970   40.6560  179.9100 H   0  0  0  0  0  0  0  0  0  0  0  0
    2.5330   43.7660  179.6200 H   0  0  0  0  0  0  0  0  0  0  0  0
    1.5980   42.9290  180.5870 H   0  0  0  0  0  0  0  0  0  0  0  0
    3.0230   42.3680  180.1810 H   0  0  0  0  0  0  0  0  0  0  0  0
   -0.4560   39.3190  178.9320 O   0  0  0  0  0  0  0  0  0  0  0  0
    1.6840   42.2280  178.7650 O   0  0  0  0  0  0  0  0  0  0  0  0
  1  5  1  0
  1  6  1  0
  1  7  1  0
  1 15  1  0
  2  3  1  0
  2  8  1  0
  2  9  1  0
  2 15  1  0
  3 10  1  0
  3 11  1  0
  3 16  1  0
  4 12  1  0
  4 13  1  0
  4 14  1  0
  4 16  1  0
M  END
$$$$
