5k8w_A_GJV_501
     RDKit          3D

 45 47  0  0  0  0  0  0  0  0999 V2000
   49.7810   38.5620  130.0890 C   0  0  0  0  0  0  0  0  0  0  0  0
   50.6040   42.4540  128.2480 C   0  0  0  0  0  3  0  0  0  0  0  0
   48.5850   37.6300  130.2990 C   0  0  0  0  0  0  0  0  0  0  0  0
   48.9910   36.8770  131.5750 C   0  0  0  0  0  0  0  0  0  0  0  0
   50.2590   40.2780  128.2790 C   0  0  0  0  0  3  0  0  0  0  0  0
   50.5180   37.0250  131.6280 C   0  0  0  0  0  0  0  0  0  0  0  0
   50.4250   40.1770  126.9050 C   0  0  0  0  0  3  0  0  0  0  0  0
   51.3230   35.7480  131.5630 C   0  0  0  0  0  0  0  0  0  0  0  0
   50.6950   41.3690  126.2070 C   0  0  0  0  0  3  0  0  0  0  0  0
   51.0270   34.8960  130.3410 C   0  0  0  0  0  0  0  0  0  0  0  0
   52.2320   34.0350  130.0230 C   0  0  0  0  0  0  0  0  0  0  0  0
   50.0310   38.2110  127.5990 C   0  0  0  0  0  3  0  0  0  0  0  0
   52.5690   31.6100  129.7690 C   0  0  0  0  0  3  0  0  0  0  0  0
   49.7700   39.4380  130.7360 H   0  0  0  0  0  0  0  0  0  0  0  0
   53.9850   32.5290  130.9390 H   0  0  0  0  0  0  0  0  0  0  0  0
   51.3830   30.3640  128.6410 H   0  0  0  0  0  0  0  0  0  0  0  0
   52.3890   35.9680  131.6070 H   0  0  0  0  0  0  0  0  0  0  0  0
   50.7550   35.5360  129.5030 H   0  0  0  0  0  0  0  0  0  0  0  0
   52.8320   33.9340  130.9260 H   0  0  0  0  0  0  0  0  0  0  0  0
   50.7630   40.6120  124.2960 H   0  0  0  0  0  0  0  0  0  0  0  0
   50.6900   43.4140  128.7550 H   0  0  0  0  0  0  0  0  0  0  0  0
   48.4590   36.9410  129.4650 H   0  0  0  0  0  0  0  0  0  0  0  0
   54.2360   30.8660  130.7540 H   0  0  0  0  0  0  0  0  0  0  0  0
   52.6910   29.5870  129.3920 H   0  0  0  0  0  0  0  0  0  0  0  0
   51.1280   35.2110  132.4890 H   0  0  0  0  0  0  0  0  0  0  0  0
   50.1500   34.2740  130.5100 H   0  0  0  0  0  0  0  0  0  0  0  0
   52.8650   34.5470  129.2990 H   0  0  0  0  0  0  0  0  0  0  0  0
   51.0350   42.3240  124.4330 H   0  0  0  0  0  0  0  0  0  0  0  0
   48.6440   35.8450  131.5940 H   0  0  0  0  0  0  0  0  0  0  0  0
   50.8160   37.6040  132.5000 H   0  0  0  0  0  0  0  0  0  0  0  0
   49.8660   37.1340  127.6240 H   0  0  0  0  0  0  0  0  0  0  0  0
   51.0320   32.6690  128.9670 H   0  0  0  0  0  0  0  0  0  0  0  0
   47.5250   38.9190  131.3020 H   0  0  0  0  0  0  0  0  0  0  0  0
   48.8800   38.2860  132.9790 H   0  0  0  0  0  0  0  0  0  0  0  0
   50.7830   42.5110  126.9240 N   0  0  0  0  0  2  0  0  0  0  0  0
   53.6520   31.6640  130.5250 N   0  0  0  0  0  0  0  0  0  0  0  0
   52.1960   30.4610  129.2400 N   0  0  0  0  0  0  0  0  0  0  0  0
   50.3380   41.3920  129.0140 N   0  0  0  0  0  2  0  0  0  0  0  0
   50.8410   41.4360  124.8850 N   0  0  0  0  0  0  0  0  0  0  0  0
   50.2780   38.8630  126.4880 N   0  0  0  0  0  2  0  0  0  0  0  0
   51.8760   32.7140  129.5300 N   0  0  0  0  0  0  0  0  0  0  0  0
   50.0010   39.0020  128.7170 N   0  0  0  0  0  0  0  0  0  0  0  0
   47.3810   38.3650  130.4900 O   0  0  0  0  0  0  0  0  0  0  0  0
   48.4100   37.4430  132.7460 O   0  0  0  0  0  0  0  0  0  0  0  0
   50.8990   37.8060  130.4800 O   0  0  0  0  0  0  0  0  0  0  0  0
  1  3  1  0
  1 14  1  0
  1 42  1  0
  1 45  1  0
  2 21  1  0
  2 35  1  0
  2 38  1  0
  3  4  1  0
  3 22  1  0
  3 43  1  0
  4  6  1  0
  4 29  1  0
  4 44  1  0
  5  7  1  0
  5 38  1  0
  5 42  1  0
  6  8  1  0
  6 30  1  0
  6 45  1  0
  7  9  1  0
  7 40  1  0
  8 10  1  0
  8 17  1  0
  8 25  1  0
  9 35  1  0
  9 39  1  0
 10 11  1  0
 10 18  1  0
 10 26  1  0
 11 19  1  0
 11 27  1  0
 11 41  1  0
 12 31  1  0
 12 40  1  0
 12 42  1  0
 13 36  1  0
 13 37  1  0
 13 41  1  0
 15 36  1  0
 16 37  1  0
 20 39  1  0
 23 36  1  0
 24 37  1  0
 28 39  1  0
 32 41  1  0
 33 43  1  0
 34 44  1  0
M  END
$$$$
