5k8w_D_GJV_501
     RDKit          3D

 45 47  0  0  0  0  0  0  0  0999 V2000
   51.9830   22.7370  194.8890 C   0  0  0  0  0  0  0  0  0  0  0  0
   54.3650   25.1840  197.6420 C   0  0  0  0  0  3  0  0  0  0  0  0
   50.5280   22.6810  194.4220 C   0  0  0  0  0  0  0  0  0  0  0  0
   50.4260   21.2040  194.0420 C   0  0  0  0  0  0  0  0  0  0  0  0
   53.3460   24.7060  195.7490 C   0  0  0  0  0  3  0  0  0  0  0  0
   51.7680   20.9720  193.3610 C   0  0  0  0  0  0  0  0  0  0  0  0
   53.7750   25.8830  195.1570 C   0  0  0  0  0  3  0  0  0  0  0  0
   51.8100   21.3400  191.8930 C   0  0  0  0  0  0  0  0  0  0  0  0
   54.5740   26.7350  195.9420 C   0  0  0  0  0  3  0  0  0  0  0  0
   53.2150   21.5460  191.3580 C   0  0  0  0  0  0  0  0  0  0  0  0
   53.4950   20.6050  190.2210 C   0  0  0  0  0  0  0  0  0  0  0  0
   52.6350   24.8670  193.6860 C   0  0  0  0  0  3  0  0  0  0  0  0
   52.4720   19.9660  188.0840 C   0  0  0  0  0  3  0  0  0  0  0  0
   52.1240   22.3690  195.9050 H   0  0  0  0  0  0  0  0  0  0  0  0
   53.7250   18.5520  188.8880 H   0  0  0  0  0  0  0  0  0  0  0  0
   51.5590   19.6380  186.2660 H   0  0  0  0  0  0  0  0  0  0  0  0
   51.2970   20.5870  191.2960 H   0  0  0  0  0  0  0  0  0  0  0  0
   53.9350   21.4240  192.1660 H   0  0  0  0  0  0  0  0  0  0  0  0
   53.3680   19.5840  190.5770 H   0  0  0  0  0  0  0  0  0  0  0  0
   54.8910   28.2390  194.5690 H   0  0  0  0  0  0  0  0  0  0  0  0
   54.6320   24.9420  198.6690 H   0  0  0  0  0  0  0  0  0  0  0  0
   50.3630   23.3140  193.5510 H   0  0  0  0  0  0  0  0  0  0  0  0
   53.0500   18.0920  187.4060 H   0  0  0  0  0  0  0  0  0  0  0  0
   51.2160   21.1470  186.9610 H   0  0  0  0  0  0  0  0  0  0  0  0
   51.1940   22.2300  191.7760 H   0  0  0  0  0  0  0  0  0  0  0  0
   53.3470   22.5770  191.0300 H   0  0  0  0  0  0  0  0  0  0  0  0
   54.5390   20.6930  189.9230 H   0  0  0  0  0  0  0  0  0  0  0  0
   55.6390   28.4740  196.1210 H   0  0  0  0  0  0  0  0  0  0  0  0
   49.5630   20.9740  193.4190 H   0  0  0  0  0  0  0  0  0  0  0  0
   52.1180   19.9520  193.5110 H   0  0  0  0  0  0  0  0  0  0  0  0
   52.1320   24.6230  192.7510 H   0  0  0  0  0  0  0  0  0  0  0  0
   52.1240   21.7130  189.0660 H   0  0  0  0  0  0  0  0  0  0  0  0
   49.7000   22.3570  196.1480 H   0  0  0  0  0  0  0  0  0  0  0  0
   51.0760   20.4070  195.7450 H   0  0  0  0  0  0  0  0  0  0  0  0
   54.8540   26.3470  197.2040 N   0  0  0  0  0  2  0  0  0  0  0  0
   53.1120   18.8090  188.1220 N   0  0  0  0  0  0  0  0  0  0  0  0
   51.7100   20.2650  187.0500 N   0  0  0  0  0  0  0  0  0  0  0  0
   53.6050   24.2960  196.9940 N   0  0  0  0  0  2  0  0  0  0  0  0
   55.0690   27.8990  195.5090 N   0  0  0  0  0  0  0  0  0  0  0  0
   53.3170   25.9740  193.8520 N   0  0  0  0  0  2  0  0  0  0  0  0
   52.6260   20.8310  189.0750 N   0  0  0  0  0  0  0  0  0  0  0  0
   52.6140   24.0520  194.7860 N   0  0  0  0  0  0  0  0  0  0  0  0
   49.6130   23.0500  195.4420 O   0  0  0  0  0  0  0  0  0  0  0  0
   50.2850   20.3260  195.1510 O   0  0  0  0  0  0  0  0  0  0  0  0
   52.6940   21.8390  194.0540 O   0  0  0  0  0  0  0  0  0  0  0  0
  1  3  1  0
  1 14  1  0
  1 42  1  0
  1 45  1  0
  2 21  1  0
  2 35  1  0
  2 38  1  0
  3  4  1  0
  3 22  1  0
  3 43  1  0
  4  6  1  0
  4 29  1  0
  4 44  1  0
  5  7  1  0
  5 38  1  0
  5 42  1  0
  6  8  1  0
  6 30  1  0
  6 45  1  0
  7  9  1  0
  7 40  1  0
  8 10  1  0
  8 17  1  0
  8 25  1  0
  9 35  1  0
  9 39  1  0
 10 11  1  0
 10 18  1  0
 10 26  1  0
 11 19  1  0
 11 27  1  0
 11 41  1  0
 12 31  1  0
 12 40  1  0
 12 42  1  0
 13 36  1  0
 13 37  1  0
 13 41  1  0
 15 36  1  0
 16 37  1  0
 20 39  1  0
 23 36  1  0
 24 37  1  0
 28 39  1  0
 32 41  1  0
 33 43  1  0
 34 44  1  0
M  END
$$$$
