5k8x_A_PE8_509
     RDKit          3D

 59 58  0  0  0  0  0  0  0  0999 V2000
   54.1440   13.2950   99.2700 C   0  0  0  0  0  0  0  0  0  0  0  0
   55.5170   13.2590   98.6160 C   0  0  0  0  0  0  0  0  0  0  0  0
   56.5210   11.1230   98.2820 C   0  0  0  0  0  0  0  0  0  0  0  0
   57.6530   10.9140   97.2790 C   0  0  0  0  0  0  0  0  0  0  0  0
   59.9180   10.9060   98.0220 C   0  0  0  0  0  0  0  0  0  0  0  0
   61.1410   11.8210   97.9390 C   0  0  0  0  0  0  0  0  0  0  0  0
   46.1520   16.3040   98.9490 C   0  0  0  0  0  0  0  0  0  0  0  0
   61.8610   13.0450   99.8620 C   0  0  0  0  0  0  0  0  0  0  0  0
   62.0490   14.5290  100.1410 C   0  0  0  0  0  0  0  0  0  0  0  0
   60.3870   16.0830  100.8400 C   0  0  0  0  0  0  0  0  0  0  0  0
   61.1050   17.3020  101.4290 C   0  0  0  0  0  0  0  0  0  0  0  0
   47.6480   16.5480   99.1340 C   0  0  0  0  0  0  0  0  0  0  0  0
   49.1830   14.7560   99.1730 C   0  0  0  0  0  0  0  0  0  0  0  0
   50.2570   15.5850   99.8780 C   0  0  0  0  0  0  0  0  0  0  0  0
   52.2690   15.2570  101.0520 C   0  0  0  0  0  0  0  0  0  0  0  0
   53.3110   14.1720  101.3240 C   0  0  0  0  0  0  0  0  0  0  0  0
   53.4730   13.5910   98.6350 H   0  0  0  0  0  0  0  0  0  0  0  0
   53.9150   12.4220   99.6250 H   0  0  0  0  0  0  0  0  0  0  0  0
   56.1950   13.2430   99.3090 H   0  0  0  0  0  0  0  0  0  0  0  0
   55.6310   14.0610   98.0820 H   0  0  0  0  0  0  0  0  0  0  0  0
   56.0150   10.3010   98.3810 H   0  0  0  0  0  0  0  0  0  0  0  0
   56.8880   11.3870   99.1400 H   0  0  0  0  0  0  0  0  0  0  0  0
   57.3740   11.2240   96.4040 H   0  0  0  0  0  0  0  0  0  0  0  0
   57.8770    9.9710   97.2340 H   0  0  0  0  0  0  0  0  0  0  0  0
   60.0170   10.1720   97.3950 H   0  0  0  0  0  0  0  0  0  0  0  0
   59.8350   10.5550   98.9220 H   0  0  0  0  0  0  0  0  0  0  0  0
   61.2470   12.1380   97.0280 H   0  0  0  0  0  0  0  0  0  0  0  0
   61.9330   11.3270   98.2030 H   0  0  0  0  0  0  0  0  0  0  0  0
   62.7120   12.6450   99.6230 H   0  0  0  0  0  0  0  0  0  0  0  0
   61.5010   12.6060  100.6480 H   0  0  0  0  0  0  0  0  0  0  0  0
   45.9180   16.3990   98.0120 H   0  0  0  0  0  0  0  0  0  0  0  0
   61.8970   15.0360   99.3280 H   0  0  0  0  0  0  0  0  0  0  0  0
   62.9510   14.6890  100.4620 H   0  0  0  0  0  0  0  0  0  0  0  0
   45.9250   15.4130   99.2550 H   0  0  0  0  0  0  0  0  0  0  0  0
   59.5030   16.0080  101.2330 H   0  0  0  0  0  0  0  0  0  0  0  0
   60.3050   16.1900   99.8800 H   0  0  0  0  0  0  0  0  0  0  0  0
   61.8010   17.0080  102.0370 H   0  0  0  0  0  0  0  0  0  0  0  0
   60.4680   17.8560  101.9070 H   0  0  0  0  0  0  0  0  0  0  0  0
   62.1170   18.6990  100.6960 H   0  0  0  0  0  0  0  0  0  0  0  0
   47.8730   16.4670  100.0740 H   0  0  0  0  0  0  0  0  0  0  0  0
   47.8690   17.4410   98.8260 H   0  0  0  0  0  0  0  0  0  0  0  0
   49.6050   14.0960   98.6020 H   0  0  0  0  0  0  0  0  0  0  0  0
   48.6330   14.3080   99.8350 H   0  0  0  0  0  0  0  0  0  0  0  0
   49.9160   15.9100  100.7260 H   0  0  0  0  0  0  0  0  0  0  0  0
   50.5100   16.3360   99.3180 H   0  0  0  0  0  0  0  0  0  0  0  0
   51.7960   15.4700  101.8720 H   0  0  0  0  0  0  0  0  0  0  0  0
   52.7060   16.0530  100.7100 H   0  0  0  0  0  0  0  0  0  0  0  0
   52.8840   13.3010  101.3230 H   0  0  0  0  0  0  0  0  0  0  0  0
   53.7310   14.3290  102.1840 H   0  0  0  0  0  0  0  0  0  0  0  0
   44.7280   16.9280   99.9890 H   0  0  0  0  0  0  0  0  0  0  0  0
   45.4600   17.2610   99.7120 O   0  0  0  0  0  0  0  0  0  0  0  0
   54.2790   14.2260  100.3090 O   0  0  0  0  0  0  0  0  0  0  0  0
   55.6840   12.1390   97.7920 O   0  0  0  0  0  0  0  0  0  0  0  0
   58.7770   11.6450   97.7000 O   0  0  0  0  0  0  0  0  0  0  0  0
   60.9660   12.9220   98.8010 O   0  0  0  0  0  0  0  0  0  0  0  0
   61.1240   14.9180  101.1200 O   0  0  0  0  0  0  0  0  0  0  0  0
   61.6800   18.0440  100.3760 O   0  0  0  0  0  0  0  0  0  0  0  0
   48.3820   15.6070   98.3960 O   0  0  0  0  0  0  0  0  0  0  0  0
   51.3680   14.7650  100.0980 O   0  0  0  0  0  0  0  0  0  0  0  0
  1  2  1  0
  1 17  1  0
  1 18  1  0
  1 52  1  0
  2 19  1  0
  2 20  1  0
  2 53  1  0
  3  4  1  0
  3 21  1  0
  3 22  1  0
  3 53  1  0
  4 23  1  0
  4 24  1  0
  4 54  1  0
  5  6  1  0
  5 25  1  0
  5 26  1  0
  5 54  1  0
  6 27  1  0
  6 28  1  0
  6 55  1  0
  7 12  1  0
  7 31  1  0
  7 34  1  0
  7 51  1  0
  8  9  1  0
  8 29  1  0
  8 30  1  0
  8 55  1  0
  9 32  1  0
  9 33  1  0
  9 56  1  0
 10 11  1  0
 10 35  1  0
 10 36  1  0
 10 56  1  0
 11 37  1  0
 11 38  1  0
 11 57  1  0
 12 40  1  0
 12 41  1  0
 12 58  1  0
 13 14  1  0
 13 42  1  0
 13 43  1  0
 13 58  1  0
 14 44  1  0
 14 45  1  0
 14 59  1  0
 15 16  1  0
 15 46  1  0
 15 47  1  0
 15 59  1  0
 16 48  1  0
 16 49  1  0
 16 52  1  0
 39 57  1  0
 50 51  1  0
M  END
$$$$
