5k8x_D_DXE_507
     RDKit          3D

 16 15  0  0  0  0  0  0  0  0999 V2000
   45.8500    8.2960  177.0640 C   0  0  0  0  0  0  0  0  0  0  0  0
   46.7820    8.2920  179.2330 C   0  0  0  0  0  0  0  0  0  0  0  0
   47.0900    9.3840  180.2610 C   0  0  0  0  0  0  0  0  0  0  0  0
   46.1420   10.5840  182.0540 C   0  0  0  0  0  0  0  0  0  0  0  0
   45.8920    8.7620  176.2150 H   0  0  0  0  0  0  0  0  0  0  0  0
   44.9680    8.4100  177.4530 H   0  0  0  0  0  0  0  0  0  0  0  0
   46.0220    7.3510  176.9240 H   0  0  0  0  0  0  0  0  0  0  0  0
   45.9000    7.9270  179.4070 H   0  0  0  0  0  0  0  0  0  0  0  0
   47.4420    7.5850  179.3080 H   0  0  0  0  0  0  0  0  0  0  0  0
   47.9450    9.1960  180.6790 H   0  0  0  0  0  0  0  0  0  0  0  0
   47.1370   10.2420  179.8110 H   0  0  0  0  0  0  0  0  0  0  0  0
   45.3690   10.5990  182.6410 H   0  0  0  0  0  0  0  0  0  0  0  0
   46.1350   11.3740  181.4910 H   0  0  0  0  0  0  0  0  0  0  0  0
   46.9520   10.5730  182.5870 H   0  0  0  0  0  0  0  0  0  0  0  0
   46.8170    8.8230  177.9350 O   0  0  0  0  0  0  0  0  0  0  0  0
   46.0950    9.4360  181.2500 O   0  0  0  0  0  0  0  0  0  0  0  0
  1  5  1  0
  1  6  1  0
  1  7  1  0
  1 15  1  0
  2  3  1  0
  2  8  1  0
  2  9  1  0
  2 15  1  0
  3 10  1  0
  3 11  1  0
  3 16  1  0
  4 12  1  0
  4 13  1  0
  4 14  1  0
  4 16  1  0
M  END
$$$$
