5lgq_A_DXE_504
     RDKit          3D

 16 15  0  0  0  0  0  0  0  0999 V2000
   37.1430    3.7570  106.8350 C   0  0  0  0  0  0  0  0  0  0  0  0
   39.1650    4.4590  105.8720 C   0  0  0  0  0  0  0  0  0  0  0  0
   40.0070    5.6720  106.2590 C   0  0  0  0  0  0  0  0  0  0  0  0
   41.8300    6.1710  107.6640 C   0  0  0  0  0  0  0  0  0  0  0  0
   36.7750    3.3370  107.6270 H   0  0  0  0  0  0  0  0  0  0  0  0
   36.7130    4.6160  106.6940 H   0  0  0  0  0  0  0  0  0  0  0  0
   36.9880    3.1880  106.0650 H   0  0  0  0  0  0  0  0  0  0  0  0
   38.5010    4.7240  105.2160 H   0  0  0  0  0  0  0  0  0  0  0  0
   39.7390    3.7760  105.4930 H   0  0  0  0  0  0  0  0  0  0  0  0
   39.4320    6.4490  106.3490 H   0  0  0  0  0  0  0  0  0  0  0  0
   40.6680    5.8390  105.5690 H   0  0  0  0  0  0  0  0  0  0  0  0
   42.1630    6.0280  108.5630 H   0  0  0  0  0  0  0  0  0  0  0  0
   42.4990    5.8860  107.0220 H   0  0  0  0  0  0  0  0  0  0  0  0
   41.6410    7.1140  107.5360 H   0  0  0  0  0  0  0  0  0  0  0  0
   38.5200    3.9480  107.0040 O   0  0  0  0  0  0  0  0  0  0  0  0
   40.6560    5.4300  107.4760 O   0  0  0  0  0  0  0  0  0  0  0  0
  1  5  1  0
  1  6  1  0
  1  7  1  0
  1 15  1  0
  2  3  1  0
  2  8  1  0
  2  9  1  0
  2 15  1  0
  3 10  1  0
  3 11  1  0
  3 16  1  0
  4 12  1  0
  4 13  1  0
  4 14  1  0
  4 16  1  0
M  END
$$$$
