5lgr_F_QVR_102
     RDKit          3D

 34 36  0  0  0  0  0  0  0  0999 V2000
   23.6760   21.1180  122.7890 C   0  0  0  0  0  3  0  0  0  0  0  0
   23.7990   20.9890  121.3000 C   0  0  0  0  0  3  0  0  0  0  0  0
   24.2670   21.9280  120.5010 C   0  0  0  0  0  3  0  0  0  0  0  0
   24.3440   21.6740  119.0310 C   0  0  0  0  0  0  0  0  0  0  0  0
   24.3790   23.4950  117.5610 C   0  0  0  0  0  0  0  0  0  0  0  0
   25.7900   23.3080  118.1120 C   0  0  0  0  0  0  0  0  0  0  0  0
   25.7530   21.8190  118.4510 C   0  0  0  0  0  0  0  0  0  0  0  0
   23.8680   25.6710  118.7600 C   0  0  0  0  0  3  0  0  0  0  0  0
   22.9270   26.8040  117.2310 C   0  0  0  0  0  3  0  0  0  0  0  0
   23.2530   25.5840  116.6640 C   0  0  0  0  0  3  0  0  0  0  0  0
   22.3860   26.1570  114.7200 C   0  0  0  0  0  3  0  0  0  0  0  0
   22.2740   27.7380  116.4050 C   0  0  0  0  0  3  0  0  0  0  0  0
   22.8060   21.7180  123.0490 H   0  0  0  0  0  0  0  0  0  0  0  0
   23.4680   20.0370  120.8880 H   0  0  0  0  0  0  0  0  0  0  0  0
   24.5460   21.6770  123.1310 H   0  0  0  0  0  0  0  0  0  0  0  0
   24.6060   22.8980  120.8620 H   0  0  0  0  0  0  0  0  0  0  0  0
   26.5470   21.5010  119.1250 H   0  0  0  0  0  0  0  0  0  0  0  0
   25.9570   23.8840  119.0210 H   0  0  0  0  0  0  0  0  0  0  0  0
   25.2410   21.2170  116.6340 H   0  0  0  0  0  0  0  0  0  0  0  0
   26.5690   23.0320  116.3540 H   0  0  0  0  0  0  0  0  0  0  0  0
   22.1450   25.9280  113.6840 H   0  0  0  0  0  0  0  0  0  0  0  0
   24.2940   25.3500  119.7090 H   0  0  0  0  0  0  0  0  0  0  0  0
   22.0710   29.2990  117.7470 H   0  0  0  0  0  0  0  0  0  0  0  0
   21.4350   29.5980  116.1740 H   0  0  0  0  0  0  0  0  0  0  0  0
   23.9080   20.7010  118.8090 H   0  0  0  0  0  0  0  0  0  0  0  0
   24.2900   23.1810  116.5220 H   0  0  0  0  0  0  0  0  0  0  0  0
   23.8610   24.8570  117.6580 N   0  0  0  0  0  0  0  0  0  0  0  0
   23.3240   26.8470  118.5600 N   0  0  0  0  0  2  0  0  0  0  0  0
   23.0110   25.1960  115.4050 N   0  0  0  0  0  2  0  0  0  0  0  0
   22.0130   27.3720  115.1310 N   0  0  0  0  0  2  0  0  0  0  0  0
   21.9040   28.9580  116.8060 N   0  0  0  0  0  0  0  0  0  0  0  0
   23.5440   22.6410  118.3220 O   0  0  0  0  0  0  0  0  0  0  0  0
   26.7740   23.6150  117.1310 O   0  0  0  0  0  0  0  0  0  0  0  0
   25.9480   21.0060  117.2980 O   0  0  0  0  0  0  0  0  0  0  0  0
  1  2  1  0
  1 13  1  0
  1 15  1  0
  2  3  1  0
  2 14  1  0
  3  4  1  0
  3 16  1  0
  4  7  1  0
  4 25  1  0
  4 32  1  0
  5  6  1  0
  5 26  1  0
  5 27  1  0
  5 32  1  0
  6  7  1  0
  6 18  1  0
  6 33  1  0
  7 17  1  0
  7 34  1  0
  8 22  1  0
  8 27  1  0
  8 28  1  0
  9 10  1  0
  9 12  1  0
  9 28  1  0
 10 27  1  0
 10 29  1  0
 11 21  1  0
 11 29  1  0
 11 30  1  0
 12 30  1  0
 12 31  1  0
 19 34  1  0
 20 33  1  0
 23 31  1  0
 24 31  1  0
M  END
$$$$
