5lgr_F_LPD_103
     RDKit          3D

 17 30  0  0  0  0  0  0  0  0999 V2000
   30.9650    8.0140  131.6110 C   0  0  0  0  0  0  0  0  0  0  0  0
   30.6020    9.3840  132.1800 C   0  0  0  0  0  5  0  0  0  0  0  0
   29.4700    9.2640  133.2140 C   0  0  0  0  0  6  0  0  0  0  0  0
   28.5370   10.1940  131.2450 C   0  0  0  0  0  6  0  0  0  0  0  0
   28.2080    9.2680  132.4030 C   0  0  0  0  0  0  0  0  0  0  0  0
   31.4880    9.8040  132.6530 H   0  0  0  0  0  0  0  0  0  0  0  0
   29.5470    8.3600  133.8150 H   0  0  0  0  0  2  0  0  0  0  0  0
   29.5200   10.0870  133.9250 H   0  0  0  0  0  2  0  0  0  0  0  0
   28.0340   11.1530  131.3610 H   0  0  0  0  0  2  0  0  0  0  0  0
   28.1780    9.8150  130.2890 H   0  0  0  0  0  2  0  0  0  0  0  0
   27.9150    8.2810  132.0460 Hg  0  0  0  0  0 10  0  0  0  0  0  0
   27.3340    9.5840  132.9720 Hg  0  0  0  0  0  6  0  0  0  0  0  0
   32.2740    6.4610  131.8820 H   0  0  0  0  0  0  0  0  0  0  0  0
   32.4820    7.7570  132.9830 H   0  0  0  0  0  0  0  0  0  0  0  0
   30.0120   10.2620  131.1580 N   0  0  0  0  0  0  0  0  0  0  0  0
   31.9670    7.3760  132.1960 N   0  0  0  0  0  0  0  0  0  0  0  0
   30.3410    7.5560  130.6500 O   0  0  0  0  0  0  0  0  0  0  0  0
  1  2  1  0
  1 11  1  0
  1 16  1  0
  1 17  1  0
  2  3  1  0
  2  6  1  0
  2 11  1  0
  2 15  1  0
  3  5  1  0
  3  7  1  0
  3  8  1  0
  3 11  1  0
  3 12  1  0
  4  5  1  0
  4  9  1  0
  4 10  1  0
  4 11  1  0
  4 12  1  0
  4 15  1  0
  5 11  1  0
  5 12  1  0
  7 11  1  0
  8 12  1  0
  9 12  1  0
 10 11  1  0
 11 12  1  0
 11 15  1  0
 11 17  1  0
 13 16  1  0
 14 16  1  0
M  END
$$$$
