5lgr_H_LPD_103
     RDKit          3D

 17 30  0  0  0  0  0  0  0  0999 V2000
   44.3210    7.4990  181.1130 C   0  0  0  0  0  0  0  0  0  0  0  0
   44.6780    8.8910  180.5950 C   0  0  0  0  0  5  0  0  0  0  0  0
   45.7700    8.8070  179.5180 C   0  0  0  0  0  6  0  0  0  0  0  0
   46.7960    9.5610  181.5090 C   0  0  0  0  0  6  0  0  0  0  0  0
   47.0390    8.6720  180.3020 C   0  0  0  0  0  0  0  0  0  0  0  0
   43.7810    9.3460  180.1780 H   0  0  0  0  0  0  0  0  0  0  0  0
   45.6320    7.9640  178.8420 H   0  0  0  0  0  2  0  0  0  0  0  0
   45.7500    9.6930  178.8850 H   0  0  0  0  0  2  0  0  0  0  0  0
   47.3540   10.4930  181.4250 H   0  0  0  0  0  2  0  0  0  0  0  0
   47.1500    9.1160  182.4380 H   0  0  0  0  0  2  0  0  0  0  0  0
   47.2600    7.6490  180.6050 Hg  0  0  0  0  0 10  0  0  0  0  0  0
   47.9260    8.9500  179.7340 Hg  0  0  0  0  0  6  0  0  0  0  0  0
   43.0620    5.9260  180.7420 H   0  0  0  0  0  0  0  0  0  0  0  0
   42.8760    7.2450  179.6640 H   0  0  0  0  0  0  0  0  0  0  0  0
   45.3290    9.7110  181.6290 N   0  0  0  0  0  0  0  0  0  0  0  0
   43.3630    6.8550  180.4650 N   0  0  0  0  0  0  0  0  0  0  0  0
   44.9130    7.0290  182.0880 O   0  0  0  0  0  0  0  0  0  0  0  0
  1  2  1  0
  1 11  1  0
  1 16  1  0
  1 17  1  0
  2  3  1  0
  2  6  1  0
  2 11  1  0
  2 15  1  0
  3  5  1  0
  3  7  1  0
  3  8  1  0
  3 11  1  0
  3 12  1  0
  4  5  1  0
  4  9  1  0
  4 10  1  0
  4 11  1  0
  4 12  1  0
  4 15  1  0
  5 11  1  0
  5 12  1  0
  7 11  1  0
  8 12  1  0
  9 12  1  0
 10 11  1  0
 11 12  1  0
 11 15  1  0
 11 17  1  0
 13 16  1  0
 14 16  1  0
M  END
$$$$
