5lv2_C_DXE_505
     RDKit          3D

 16 15  0  0  0  0  0  0  0  0999 V2000
    1.7170   11.2870   77.2000 C   0  0  0  0  0  0  0  0  0  0  0  0
    3.8210   11.8370   76.2730 C   0  0  0  0  0  0  0  0  0  0  0  0
    4.3570   13.1230   75.6410 C   0  0  0  0  0  0  0  0  0  0  0  0
    6.0430   13.9940   77.0710 C   0  0  0  0  0  0  0  0  0  0  0  0
    1.2520   11.3760   76.3540 H   0  0  0  0  0  0  0  0  0  0  0  0
    2.0130   10.3700   77.3120 H   0  0  0  0  0  0  0  0  0  0  0  0
    1.1170   11.5240   77.9250 H   0  0  0  0  0  0  0  0  0  0  0  0
    3.4440   11.2710   75.5820 H   0  0  0  0  0  0  0  0  0  0  0  0
    4.5480   11.3670   76.7120 H   0  0  0  0  0  0  0  0  0  0  0  0
    4.2240   13.0870   74.6810 H   0  0  0  0  0  0  0  0  0  0  0  0
    3.8760   13.8830   76.0030 H   0  0  0  0  0  0  0  0  0  0  0  0
    5.7730   14.9180   76.9570 H   0  0  0  0  0  0  0  0  0  0  0  0
    5.5730   13.6120   77.8300 H   0  0  0  0  0  0  0  0  0  0  0  0
    6.9990   13.9530   77.2290 H   0  0  0  0  0  0  0  0  0  0  0  0
    2.8300   12.1420   77.2150 O   0  0  0  0  0  0  0  0  0  0  0  0
    5.7280   13.2680   75.9130 O   0  0  0  0  0  0  0  0  0  0  0  0
  1  5  1  0
  1  6  1  0
  1  7  1  0
  1 15  1  0
  2  3  1  0
  2  8  1  0
  2  9  1  0
  2 15  1  0
  3 10  1  0
  3 11  1  0
  3 16  1  0
  4 12  1  0
  4 13  1  0
  4 14  1  0
  4 16  1  0
M  END
$$$$
