5lv2_C_M2M_504
     RDKit          3D

 23 22  0  0  0  0  0  0  0  0999 V2000
    0.5440    7.0290   77.9180 C   0  0  0  0  0  0  0  0  0  0  0  0
    1.3930    8.2010   79.7930 C   0  0  0  0  0  0  0  0  0  0  0  0
    2.8440    7.8690   80.2100 C   0  0  0  0  0  0  0  0  0  0  0  0
    4.6560    6.4070   79.7730 C   0  0  0  0  0  0  0  0  0  0  0  0
    4.5330    5.4860   81.0060 C   0  0  0  0  0  0  0  0  0  0  0  0
    3.7810    3.2380   81.0170 C   0  0  0  0  0  0  0  0  0  0  0  0
    1.2960    6.5980   77.4810 H   0  0  0  0  0  0  0  0  0  0  0  0
    0.1220    6.2130   78.2280 H   0  0  0  0  0  0  0  0  0  0  0  0
   -0.2780    7.5040   77.7200 H   0  0  0  0  0  0  0  0  0  0  0  0
    1.1660    9.0900   80.1050 H   0  0  0  0  0  0  0  0  0  0  0  0
    0.7900    7.5560   80.1950 H   0  0  0  0  0  0  0  0  0  0  0  0
    3.3900    8.6670   80.1300 H   0  0  0  0  0  0  0  0  0  0  0  0
    2.8510    7.5660   81.1310 H   0  0  0  0  0  0  0  0  0  0  0  0
    5.0640    5.9150   79.0430 H   0  0  0  0  0  0  0  0  0  0  0  0
    5.2100    7.1710   79.9960 H   0  0  0  0  0  0  0  0  0  0  0  0
    3.6360    5.5530   81.3700 H   0  0  0  0  0  0  0  0  0  0  0  0
    5.1760    5.7590   81.6780 H   0  0  0  0  0  0  0  0  0  0  0  0
    3.6490    3.2960   81.9770 H   0  0  0  0  0  0  0  0  0  0  0  0
    2.9520    3.4560   80.5630 H   0  0  0  0  0  0  0  0  0  0  0  0
    4.0520    2.3370   80.7810 H   0  0  0  0  0  0  0  0  0  0  0  0
    1.2610    8.1510   78.3870 O   0  0  0  0  0  0  0  0  0  0  0  0
    3.3740    6.8540   79.3790 O   0  0  0  0  0  0  0  0  0  0  0  0
    4.7870    4.1510   80.6250 O   0  0  0  0  0  0  0  0  0  0  0  0
  1  7  1  0
  1  8  1  0
  1  9  1  0
  1 21  1  0
  2  3  1  0
  2 10  1  0
  2 11  1  0
  2 21  1  0
  3 12  1  0
  3 13  1  0
  3 22  1  0
  4  5  1  0
  4 14  1  0
  4 15  1  0
  4 22  1  0
  5 16  1  0
  5 17  1  0
  5 23  1  0
  6 18  1  0
  6 19  1  0
  6 20  1  0
  6 23  1  0
M  END
$$$$
