5lv2_E_M2M_504
     RDKit          3D

 23 22  0  0  0  0  0  0  0  0999 V2000
  -54.1070   -7.0250   80.9450 C   0  0  0  0  0  0  0  0  0  0  0  0
  -55.7050   -8.8340   81.0670 C   0  0  0  0  0  0  0  0  0  0  0  0
  -55.3340   -9.5450   79.7440 C   0  0  0  0  0  0  0  0  0  0  0  0
  -53.6450  -11.2150   80.0510 C   0  0  0  0  0  0  0  0  0  0  0  0
  -53.2500  -11.9410   78.7450 C   0  0  0  0  0  0  0  0  0  0  0  0
  -51.3640  -11.0020   77.6260 C   0  0  0  0  0  0  0  0  0  0  0  0
  -53.7250   -7.9140   80.8750 H   0  0  0  0  0  0  0  0  0  0  0  0
  -53.4120   -6.6570   81.5130 H   0  0  0  0  0  0  0  0  0  0  0  0
  -54.2560   -6.2200   80.4250 H   0  0  0  0  0  0  0  0  0  0  0  0
  -55.1720   -9.2030   81.7880 H   0  0  0  0  0  0  0  0  0  0  0  0
  -56.6450   -8.9820   81.2560 H   0  0  0  0  0  0  0  0  0  0  0  0
  -54.5630   -9.1100   79.3470 H   0  0  0  0  0  0  0  0  0  0  0  0
  -56.0840   -9.4990   79.1300 H   0  0  0  0  0  0  0  0  0  0  0  0
  -53.1290  -10.3980   80.1360 H   0  0  0  0  0  0  0  0  0  0  0  0
  -53.4650  -11.7920   80.8100 H   0  0  0  0  0  0  0  0  0  0  0  0
  -53.5530  -12.8620   78.7830 H   0  0  0  0  0  0  0  0  0  0  0  0
  -53.6640  -11.4960   77.9890 H   0  0  0  0  0  0  0  0  0  0  0  0
  -50.4020  -11.0950   77.5430 H   0  0  0  0  0  0  0  0  0  0  0  0
  -51.5790  -10.0970   77.9000 H   0  0  0  0  0  0  0  0  0  0  0  0
  -51.7820  -11.1890   76.7710 H   0  0  0  0  0  0  0  0  0  0  0  0
  -55.4620   -7.4420   80.9750 O   0  0  0  0  0  0  0  0  0  0  0  0
  -55.0270  -10.8990   80.0150 O   0  0  0  0  0  0  0  0  0  0  0  0
  -51.8440  -11.9140   78.5950 O   0  0  0  0  0  0  0  0  0  0  0  0
  1  7  1  0
  1  8  1  0
  1  9  1  0
  1 21  1  0
  2  3  1  0
  2 10  1  0
  2 11  1  0
  2 21  1  0
  3 12  1  0
  3 13  1  0
  3 22  1  0
  4  5  1  0
  4 14  1  0
  4 15  1  0
  4 22  1  0
  5 16  1  0
  5 17  1  0
  5 23  1  0
  6 18  1  0
  6 19  1  0
  6 20  1  0
  6 23  1  0
M  END
$$$$
