5lv2_D_LHB_501
     RDKit          3D

 54 57  0  0  0  0  0  0  0  0999 V2000
    2.2180  -16.8700   90.9530 C   0  0  0  0  0  3  0  0  0  0  0  0
   -3.4560  -14.8120   86.7500 C   0  0  0  0  0  0  0  0  0  0  0  0
   -3.8830  -15.9400   84.6100 C   0  0  0  0  0  0  0  0  0  0  0  0
   -4.9960  -15.3300   83.7710 C   0  0  0  0  0  3  0  0  0  0  0  0
   -6.3830  -15.6750   83.9260 C   0  0  0  0  0  3  0  0  0  0  0  0
   -7.0710  -14.1150   82.3260 C   0  0  0  0  0  3  0  0  0  0  0  0
   -4.7470  -14.3790   82.8490 C   0  0  0  0  0  3  0  0  0  0  0  0
   -5.3790  -12.7690   81.1140 C   0  0  0  0  0  0  0  0  0  0  0  0
   -4.8920  -12.7800   78.8120 C   0  0  0  0  0  0  0  0  0  0  0  0
    1.2790  -16.2550   90.1030 C   0  0  0  0  0  3  0  0  0  0  0  0
    0.0510  -15.9070   90.6710 C   0  0  0  0  0  3  0  0  0  0  0  0
    0.6420  -16.7010   92.6380 C   0  0  0  0  0  3  0  0  0  0  0  0
    0.1330  -15.3900   88.5440 C   0  0  0  0  0  3  0  0  0  0  0  0
   -2.0200  -14.8090   89.7360 C   0  0  0  0  0  0  0  0  0  0  0  0
   -3.8170  -14.7880   88.2230 C   0  0  0  0  0  0  0  0  0  0  0  0
   -3.6430  -13.3900   88.8070 C   0  0  0  0  0  0  0  0  0  0  0  0
   -2.1680  -13.3890   89.1870 C   0  0  0  0  0  0  0  0  0  0  0  0
    0.4280  -16.9110   93.6850 H   0  0  0  0  0  0  0  0  0  0  0  0
   -3.7120  -13.8540   86.3000 H   0  0  0  0  0  0  0  0  0  0  0  0
   -4.2460  -16.7340   86.5090 H   0  0  0  0  0  0  0  0  0  0  0  0
   -3.6760  -16.9530   84.2680 H   0  0  0  0  0  0  0  0  0  0  0  0
   -2.9420  -15.4170   84.4490 H   0  0  0  0  0  0  0  0  0  0  0  0
    3.7560  -17.0570   89.6150 H   0  0  0  0  0  0  0  0  0  0  0  0
    4.0960  -17.6660   91.2080 H   0  0  0  0  0  0  0  0  0  0  0  0
   -3.7240  -14.0650   82.6500 H   0  0  0  0  0  0  0  0  0  0  0  0
   -5.9940  -17.1480   85.2940 H   0  0  0  0  0  0  0  0  0  0  0  0
   -7.6670  -16.9450   84.9230 H   0  0  0  0  0  0  0  0  0  0  0  0
   -4.2990  -12.6310   81.1140 H   0  0  0  0  0  0  0  0  0  0  0  0
   -0.1860  -15.0110   87.5740 H   0  0  0  0  0  0  0  0  0  0  0  0
   -5.8050  -11.8070   81.3950 H   0  0  0  0  0  0  0  0  0  0  0  0
   -4.8240  -13.5240   78.0200 H   0  0  0  0  0  0  0  0  0  0  0  0
   -5.3720  -11.8830   78.4240 H   0  0  0  0  0  0  0  0  0  0  0  0
   -3.8850  -12.5260   79.1410 H   0  0  0  0  0  0  0  0  0  0  0  0
   -2.3440  -14.8870   90.7730 H   0  0  0  0  0  0  0  0  0  0  0  0
   -4.7950  -15.2290   88.4090 H   0  0  0  0  0  0  0  0  0  0  0  0
   -3.8490  -12.6080   88.0780 H   0  0  0  0  0  0  0  0  0  0  0  0
   -1.5270  -13.1960   88.3290 H   0  0  0  0  0  0  0  0  0  0  0  0
   -1.5830  -11.5750   89.7480 H   0  0  0  0  0  0  0  0  0  0  0  0
   -5.0790  -12.4460   89.7410 H   0  0  0  0  0  0  0  0  0  0  0  0
   -2.3770  -14.8940   86.6330 H   0  0  0  0  0  0  0  0  0  0  0  0
   -0.3200  -16.1020   91.9330 N   0  0  0  0  0  2  0  0  0  0  0  0
    1.8520  -17.0880   92.2380 N   0  0  0  0  0  2  0  0  0  0  0  0
   -0.6790  -15.3480   89.6510 N   0  0  0  0  0  0  0  0  0  0  0  0
    1.3150  -15.9230   88.7630 N   0  0  0  0  0  2  0  0  0  0  0  0
   -4.2190  -15.8380   86.0340 N   0  0  0  0  0  0  0  0  0  0  0  0
    3.4450  -17.2240   90.5670 N   0  0  0  0  0  0  0  0  0  0  0  0
   -7.3580  -15.0800   83.2340 N   0  0  0  0  0  2  0  0  0  0  0  0
   -5.7360  -13.7670   82.1250 N   0  0  0  0  0  0  0  0  0  0  0  0
   -6.7070  -16.6530   84.7680 N   0  0  0  0  0  0  0  0  0  0  0  0
   -2.8940  -15.6180   88.9580 O   0  0  0  0  0  0  0  0  0  0  0  0
   -1.8630  -12.4210   90.1850 O   0  0  0  0  0  0  0  0  0  0  0  0
   -4.4670  -13.1990   89.9500 O   0  0  0  0  0  0  0  0  0  0  0  0
   -5.7580  -13.2020   79.8380 O   0  0  0  0  0  0  0  0  0  0  0  0
   -7.9440  -13.5290   81.6830 O   0  0  0  0  0  1  0  0  0  0  0  0
  1 10  1  0
  1 42  1  0
  1 46  1  0
  2 15  1  0
  2 19  1  0
  2 40  1  0
  2 45  1  0
  3  4  1  0
  3 21  1  0
  3 22  1  0
  3 45  1  0
  4  5  1  0
  4  7  1  0
  5 47  1  0
  5 49  1  0
  6 47  1  0
  6 48  1  0
  6 54  1  0
  7 25  1  0
  7 48  1  0
  8 28  1  0
  8 30  1  0
  8 48  1  0
  8 53  1  0
  9 31  1  0
  9 32  1  0
  9 33  1  0
  9 53  1  0
 10 11  1  0
 10 44  1  0
 11 41  1  0
 11 43  1  0
 12 18  1  0
 12 41  1  0
 12 42  1  0
 13 29  1  0
 13 43  1  0
 13 44  1  0
 14 17  1  0
 14 34  1  0
 14 43  1  0
 14 50  1  0
 15 16  1  0
 15 35  1  0
 15 50  1  0
 16 17  1  0
 16 36  1  0
 16 52  1  0
 17 37  1  0
 17 51  1  0
 20 45  1  0
 23 46  1  0
 24 46  1  0
 26 49  1  0
 27 49  1  0
 38 51  1  0
 39 52  1  0
M  END
$$$$
