5lv3_A_SAH_501
     RDKit          3D

 45 61  0  0  0  0  0  0  0  0999 V2000
   54.2040   34.8630  137.0280 C   0  0  0  0  0  0  0  0  0  0  0  0
   50.3430   38.2440  130.5590 C   0  0  0  0  0  0  0  0  0  0  0  0
   50.9120   42.3450  128.8970 C   0  0  0  0  0  3  0  0  0  0  0  0
   49.1970   37.2760  130.7990 C   0  0  0  0  0  0  0  0  0  0  0  0
   49.7150   36.5070  132.0010 C   0  0  0  0  0  0  0  0  0  0  0  0
   50.6850   39.9860  128.7980 C   0  0  0  0  0  3  0  0  0  0  0  0
   51.2340   36.6370  131.9540 C   0  0  0  0  0  0  0  0  0  0  0  0
   50.8320   39.9920  127.4220 C   0  0  0  0  0  3  0  0  0  0  0  0
   51.9560   35.3170  131.6870 C   0  0  0  0  0  5  0  0  0  0  0  0
   51.0270   41.2150  126.7810 C   0  0  0  0  0  3  0  0  0  0  0  0
   50.5630   37.8950  128.0520 C   0  0  0  0  0  3  0  0  0  0  0  0
   53.5080   36.0440  136.3610 C   0  0  0  0  0  6  0  0  0  0  0  0
   52.5070   35.5590  135.3150 C   0  0  0  0  0  6  0  0  0  0  0  0
   53.1010   34.8120  134.1210 C   0  0  0  0  0  0  0  0  0  0  0  0
   50.2050   39.1120  131.2040 H   0  0  0  0  0  0  0  0  0  0  0  0
   50.7380   43.2710  129.4440 H   0  0  0  0  0  0  0  0  0  0  0  0
   49.1160   36.5980  129.9490 H   0  0  0  0  0  0  0  0  0  0  0  0
   49.4280   35.4590  131.9260 H   0  0  0  0  0  0  0  0  0  0  0  0
   51.5780   37.0330  132.9090 H   0  0  0  0  0  0  0  0  0  0  0  0
   51.5550   34.8690  130.7780 H   0  0  0  0  0  0  0  0  0  0  0  0
   53.0130   35.5180  131.5150 H   0  0  0  0  0  2  0  0  0  0  0  0
   50.3650   36.8240  128.0120 H   0  0  0  0  0  0  0  0  0  0  0  0
   53.0110   36.5290  137.0530 H   0  0  0  0  0  0  0  0  0  0  0  0
   51.9570   36.4240  134.9450 H   0  0  0  0  0  2  0  0  0  0  0  0
   51.7870   34.9070  135.8090 H   0  0  0  0  0  0  0  0  0  0  0  0
   53.7320   33.9980  134.4790 Hg  0  0  0  0  0  7  0  0  0  0  0  0
   53.7270   35.4910  133.5420 Hg  0  0  0  0  0 10  0  0  0  0  0  0
   54.3560   37.1210  134.9430 H   0  0  0  0  0  2  0  0  0  0  0  0
   55.1160   37.1850  136.3170 H   0  0  0  0  0  0  0  0  0  0  0  0
   51.1220   40.4250  124.9080 H   0  0  0  0  0  0  0  0  0  0  0  0
   51.3060   42.1700  125.0060 H   0  0  0  0  0  0  0  0  0  0  0  0
   48.0840   38.8870  131.0040 H   0  0  0  0  0  0  0  0  0  0  0  0
   48.6930   37.8560  133.0000 H   0  0  0  0  0  0  0  0  0  0  0  0
   54.4990   36.9390  135.7710 N   0  0  0  0  0  4  0  0  0  0  0  0
   51.0620   42.3710  127.5330 N   0  0  0  0  0  2  0  0  0  0  0  0
   50.7260   41.1330  129.5200 N   0  0  0  0  0  2  0  0  0  0  0  0
   51.1600   41.2750  125.4610 N   0  0  0  0  0  0  0  0  0  0  0  0
   50.7560   38.7100  126.9890 N   0  0  0  0  0  2  0  0  0  0  0  0
   50.5130   38.6810  129.1720 N   0  0  0  0  0  0  0  0  0  0  0  0
   55.3880   34.6190  136.7860 O   0  0  0  0  0  0  0  0  0  0  0  0
   47.9610   37.9160  131.0400 O   0  0  0  0  0  0  0  0  0  0  0  0
   49.2550   37.0780  133.2020 O   0  0  0  0  0  0  0  0  0  0  0  0
   51.5190   37.5570  130.9280 O   0  0  0  0  0  0  0  0  0  0  0  0
   53.6040   34.1300  137.8150 O   0  0  0  0  0  1  0  0  0  0  0  0
   51.7900   34.1370  133.0530 S   0  0  0  0  0  4  0  0  0  0  0  0
  1 12  1  0
  1 26  1  0
  1 40  1  0
  1 44  1  0
  2  4  1  0
  2 15  1  0
  2 39  1  0
  2 43  1  0
  3 16  1  0
  3 35  1  0
  3 36  1  0
  4  5  1  0
  4 17  1  0
  4 41  1  0
  5  7  1  0
  5 18  1  0
  5 42  1  0
  6  8  1  0
  6 36  1  0
  6 39  1  0
  7  9  1  0
  7 19  1  0
  7 43  1  0
  8 10  1  0
  8 38  1  0
  9 20  1  0
  9 21  1  0
  9 27  1  0
  9 45  1  0
 10 35  1  0
 10 37  1  0
 11 22  1  0
 11 38  1  0
 11 39  1  0
 12 13  1  0
 12 23  1  0
 12 26  1  0
 12 27  1  0
 12 34  1  0
 13 14  1  0
 13 24  1  0
 13 25  1  0
 13 26  1  0
 13 27  1  0
 14 26  1  0
 14 27  1  0
 14 45  1  0
 21 27  1  0
 24 27  1  0
 26 27  1  0
 26 40  1  0
 26 45  1  0
 27 28  1  0
 27 34  1  0
 27 45  1  0
 28 34  1  0
 29 34  1  0
 30 37  1  0
 31 37  1  0
 32 41  1  0
 33 42  1  0
M  END
$$$$
