5ntc_A_6L7_508
     RDKit          3D

 57 59  0  0  0  0  0  0  0  0999 V2000
   50.3540   40.0860  128.2880 C   0  0  0  0  0  3  0  0  0  0  0  0
   51.3790   35.5040  130.9870 C   0  0  0  0  0  0  0  0  0  0  0  0
   52.2440   33.2110  131.6590 C   0  0  0  0  0  0  0  0  0  0  0  0
   51.0790   32.4730  131.0290 C   0  0  0  0  0  0  0  0  0  0  0  0
   51.9230   34.9280  133.4450 C   0  0  0  0  0  0  0  0  0  0  0  0
   53.1930   34.7240  134.2400 C   0  0  0  0  0  0  0  0  0  0  0  0
   53.2790   35.5460  135.5260 C   0  0  0  0  0  0  0  0  0  0  0  0
   53.8340   34.6370  136.6240 C   0  0  0  0  0  3  0  0  0  0  0  0
   50.7590   39.9830  126.9670 C   0  0  0  0  0  3  0  0  0  0  0  0
   51.0340   41.1930  126.2950 C   0  0  0  0  0  3  0  0  0  0  0  0
   50.4870   42.2810  128.2620 C   0  0  0  0  0  3  0  0  0  0  0  0
   50.4730   37.9960  127.6430 C   0  0  0  0  0  3  0  0  0  0  0  0
   49.8280   38.3660  130.0640 C   0  0  0  0  0  0  0  0  0  0  0  0
   48.7530   37.2840  130.1420 C   0  0  0  0  0  0  0  0  0  0  0  0
   49.1330   36.5660  131.4410 C   0  0  0  0  0  0  0  0  0  0  0  0
   50.6530   36.7220  131.5000 C   0  0  0  0  0  0  0  0  0  0  0  0
   50.6560   34.8800  130.4640 H   0  0  0  0  0  0  0  0  0  0  0  0
   52.0390   35.8160  130.1790 H   0  0  0  0  0  0  0  0  0  0  0  0
   52.5490   32.6400  132.5340 H   0  0  0  0  0  0  0  0  0  0  0  0
   53.0980   33.1280  130.9870 H   0  0  0  0  0  0  0  0  0  0  0  0
   50.6380   33.0470  130.2150 H   0  0  0  0  0  0  0  0  0  0  0  0
   50.2640   32.2890  131.7280 H   0  0  0  0  0  0  0  0  0  0  0  0
   51.5390   35.9290  133.6380 H   0  0  0  0  0  0  0  0  0  0  0  0
   51.1340   34.2910  133.8430 H   0  0  0  0  0  0  0  0  0  0  0  0
   54.0370   34.9740  133.5990 H   0  0  0  0  0  0  0  0  0  0  0  0
   53.3600   33.6730  134.4740 H   0  0  0  0  0  0  0  0  0  0  0  0
   52.2980   35.9200  135.8170 H   0  0  0  0  0  0  0  0  0  0  0  0
   50.3880   43.2460  128.7560 H   0  0  0  0  0  0  0  0  0  0  0  0
   50.4180   36.9090  127.6790 H   0  0  0  0  0  0  0  0  0  0  0  0
   49.5870   39.2570  130.6420 H   0  0  0  0  0  0  0  0  0  0  0  0
   48.6620   36.6420  129.2670 H   0  0  0  0  0  0  0  0  0  0  0  0
   48.7770   35.5380  131.4760 H   0  0  0  0  0  0  0  0  0  0  0  0
   50.9980   36.9900  132.4980 H   0  0  0  0  0  0  0  0  0  0  0  0
   51.5740   40.4060  124.4870 H   0  0  0  0  0  0  0  0  0  0  0  0
   51.6330   42.1470  124.5740 H   0  0  0  0  0  0  0  0  0  0  0  0
   53.1040   34.9940  131.8550 H   0  0  0  0  0  0  0  0  0  0  0  0
   50.8280   30.6190  130.1020 H   0  0  0  0  0  0  0  0  0  0  0  0
   52.3420   31.2360  129.9030 H   0  0  0  0  0  0  0  0  0  0  0  0
   51.8920   30.5840  131.3220 H   0  0  0  0  0  0  0  0  0  0  0  0
   53.8110   37.3120  134.6070 H   0  0  0  0  0  0  0  0  0  0  0  0
   55.0920   36.3900  135.0220 H   0  0  0  0  0  0  0  0  0  0  0  0
   54.2970   37.2620  136.1840 H   0  0  0  0  0  0  0  0  0  0  0  0
   49.0960   37.8620  132.9530 H   0  0  0  0  0  0  0  0  0  0  0  0
   47.5350   38.6760  130.8440 H   0  0  0  0  0  0  0  0  0  0  0  0
   50.8300   38.6610  126.5670 N   0  0  0  0  0  2  0  0  0  0  0  0
   50.1750   38.7910  128.7130 N   0  0  0  0  0  0  0  0  0  0  0  0
   50.8860   42.3430  126.9880 N   0  0  0  0  0  2  0  0  0  0  0  0
   50.1970   41.2030  128.9980 N   0  0  0  0  0  2  0  0  0  0  0  0
   51.4440   41.2570  125.0240 N   0  0  0  0  0  0  0  0  0  0  0  0
   52.1460   34.6830  131.9760 N   0  0  0  0  0  4  0  0  0  0  0  0
   51.5640   31.1550  130.5500 N   0  0  0  0  0  4  0  0  0  0  0  0
   54.1840   36.7140  135.3370 N   0  0  0  0  0  4  0  0  0  0  0  0
   50.9950   37.8120  130.6250 O   0  0  0  0  0  0  0  0  0  0  0  0
   48.5240   37.1350  132.5930 O   0  0  0  0  0  0  0  0  0  0  0  0
   47.4670   37.8810  130.2540 O   0  0  0  0  0  0  0  0  0  0  0  0
   53.0310   34.2200  137.4880 O   0  0  0  0  0  1  0  0  0  0  0  0
   55.0480   34.3430  136.5460 O   0  0  0  0  0  1  0  0  0  0  0  0
  1  9  1  0
  1 46  1  0
  1 48  1  0
  2 16  1  0
  2 17  1  0
  2 18  1  0
  2 50  1  0
  3  4  1  0
  3 19  1  0
  3 20  1  0
  3 50  1  0
  4 21  1  0
  4 22  1  0
  4 51  1  0
  5  6  1  0
  5 23  1  0
  5 24  1  0
  5 50  1  0
  6  7  1  0
  6 25  1  0
  6 26  1  0
  7  8  1  0
  7 27  1  0
  7 52  1  0
  8 56  1  0
  8 57  1  0
  9 10  1  0
  9 45  1  0
 10 47  1  0
 10 49  1  0
 11 28  1  0
 11 47  1  0
 11 48  1  0
 12 29  1  0
 12 45  1  0
 12 46  1  0
 13 14  1  0
 13 30  1  0
 13 46  1  0
 13 53  1  0
 14 15  1  0
 14 31  1  0
 14 55  1  0
 15 16  1  0
 15 32  1  0
 15 54  1  0
 16 33  1  0
 16 53  1  0
 34 49  1  0
 35 49  1  0
 36 50  1  0
 37 51  1  0
 38 51  1  0
 39 51  1  0
 40 52  1  0
 41 52  1  0
 42 52  1  0
 43 54  1  0
 44 55  1  0
M  END
$$$$
