5tbh_A_SAO_507
     RDKit          3D

 46 61  0  0  0  0  0  0  0  0999 V2000
   53.6980   34.9390  135.9340 C   0  0  0  0  0  0  0  0  0  0  0  0
   49.8930   38.4410  129.5640 C   0  0  0  0  0  0  0  0  0  0  0  0
   50.5120   42.3830  127.7700 C   0  0  0  0  0  3  0  0  0  0  0  0
   48.7430   37.4530  129.7400 C   0  0  0  0  0  0  0  0  0  0  0  0
   49.1950   36.6470  130.9650 C   0  0  0  0  0  0  0  0  0  0  0  0
   50.2910   40.1900  127.7710 C   0  0  0  0  0  3  0  0  0  0  0  0
   50.7220   36.7750  130.9580 C   0  0  0  0  0  0  0  0  0  0  0  0
   50.5120   40.1150  126.4050 C   0  0  0  0  0  3  0  0  0  0  0  0
   51.4370   35.4880  130.5940 C   0  0  0  0  0  5  0  0  0  0  0  0
   50.7460   41.3210  125.7280 C   0  0  0  0  0  3  0  0  0  0  0  0
   50.2110   38.1210  127.0710 C   0  0  0  0  0  3  0  0  0  0  0  0
   52.9900   36.0690  135.1780 C   0  0  0  0  0  6  0  0  0  0  0  0
   51.9790   35.5080  134.1750 C   0  0  0  0  0  6  0  0  0  0  0  0
   52.6180   34.7080  133.0470 C   0  0  0  0  0  0  0  0  0  0  0  0
   49.8040   39.3280  130.1890 H   0  0  0  0  0  0  0  0  0  0  0  0
   50.5200   43.3370  128.2940 H   0  0  0  0  0  0  0  0  0  0  0  0
   48.5200   36.8410  128.8680 H   0  0  0  0  0  0  0  0  0  0  0  0
   54.4600   37.5670  135.1020 H   0  0  0  0  0  0  0  0  0  0  0  0
   48.8170   35.6260  130.9720 H   0  0  0  0  0  0  0  0  0  0  0  0
   51.1270   37.1800  131.8840 H   0  0  0  0  0  0  0  0  0  0  0  0
   52.5000   35.6440  130.4130 H   0  0  0  0  0  2  0  0  0  0  0  0
   51.0490   35.0670  129.6680 H   0  0  0  0  0  0  0  0  0  0  0  0
   50.1040   37.0380  127.0910 H   0  0  0  0  0  0  0  0  0  0  0  0
   52.4720   36.6780  135.9170 H   0  0  0  0  0  0  0  0  0  0  0  0
   51.4310   36.3500  133.7550 H   0  0  0  0  0  0  0  0  0  0  0  0
   51.2120   34.9240  134.6810 H   0  0  0  0  0  0  0  0  0  0  0  0
   53.1090   33.7960  133.3850 Hg  0  0  0  0  0  6  0  0  0  0  0  0
   53.3740   35.2810  132.5130 Hg  0  0  0  0  0 10  0  0  0  0  0  0
   53.6310   37.4160  133.6860 H   0  0  0  0  0  2  0  0  0  0  0  0
   54.6860   36.2310  134.1480 H   0  0  0  0  0  2  0  0  0  0  0  0
   50.9770   40.5590  123.8440 H   0  0  0  0  0  0  0  0  0  0  0  0
   51.1360   42.2910  123.9550 H   0  0  0  0  0  0  0  0  0  0  0  0
   47.3730   38.2070  130.9840 H   0  0  0  0  0  0  0  0  0  0  0  0
   49.0140   38.0750  132.3240 H   0  0  0  0  0  0  0  0  0  0  0  0
   54.0040   36.9060  134.4800 N   0  0  0  0  0  5  0  0  0  0  0  0
   50.7390   42.4600  126.4550 N   0  0  0  0  0  2  0  0  0  0  0  0
   50.2800   41.3020  128.5190 N   0  0  0  0  0  2  0  0  0  0  0  0
   50.9700   41.4000  124.4120 N   0  0  0  0  0  0  0  0  0  0  0  0
   50.4580   38.7960  125.9770 N   0  0  0  0  0  2  0  0  0  0  0  0
   50.0990   38.9000  128.1950 N   0  0  0  0  0  0  0  0  0  0  0  0
   54.9170   34.7880  135.7030 O   0  0  0  0  0  1  0  0  0  0  0  0
   47.5190   38.1340  130.0040 O   0  0  0  0  0  0  0  0  0  0  0  0
   48.6480   37.1650  132.1720 O   0  0  0  0  0  0  0  0  0  0  0  0
   51.0570   37.7540  129.9580 O   0  0  0  0  0  0  0  0  0  0  0  0
   53.0110   34.2470  136.7170 O   0  0  0  0  0  1  0  0  0  0  0  0
   51.2520   34.2790  131.9310 S   0  0  0  0  0  4  0  0  0  0  0  0
  1 12  1  0
  1 27  1  0
  1 41  1  0
  1 45  1  0
  2  4  1  0
  2 15  1  0
  2 40  1  0
  2 44  1  0
  3 16  1  0
  3 36  1  0
  3 37  1  0
  4  5  1  0
  4 17  1  0
  4 42  1  0
  5  7  1  0
  5 19  1  0
  5 43  1  0
  6  8  1  0
  6 37  1  0
  6 40  1  0
  7  9  1  0
  7 20  1  0
  7 44  1  0
  8 10  1  0
  8 39  1  0
  9 21  1  0
  9 22  1  0
  9 28  1  0
  9 46  1  0
 10 36  1  0
 10 38  1  0
 11 23  1  0
 11 39  1  0
 11 40  1  0
 12 13  1  0
 12 24  1  0
 12 27  1  0
 12 28  1  0
 12 35  1  0
 13 14  1  0
 13 25  1  0
 13 26  1  0
 13 27  1  0
 13 28  1  0
 14 27  1  0
 14 28  1  0
 14 46  1  0
 18 35  1  0
 21 28  1  0
 27 28  1  0
 27 46  1  0
 28 29  1  0
 28 30  1  0
 28 35  1  0
 28 46  1  0
 29 35  1  0
 30 35  1  0
 31 38  1  0
 32 38  1  0
 33 42  1  0
 34 43  1  0
M  END
$$$$
