5tbi_A_SAO_507
     RDKit          3D

 46 62  0  0  0  0  0  0  0  0999 V2000
   53.7430   34.6940  135.5450 C   0  0  0  0  0  0  0  0  0  0  0  0
   49.8560   38.1720  129.1000 C   0  0  0  0  0  0  0  0  0  0  0  0
   50.4840   42.1060  127.3050 C   0  0  0  0  0  3  0  0  0  0  0  0
   48.7430   37.1540  129.3220 C   0  0  0  0  0  0  0  0  0  0  0  0
   49.2230   36.4540  130.6000 C   0  0  0  0  0  0  0  0  0  0  0  0
   50.2150   39.9210  127.3010 C   0  0  0  0  0  3  0  0  0  0  0  0
   50.7500   36.5660  130.5230 C   0  0  0  0  0  0  0  0  0  0  0  0
   50.3880   39.8460  125.9280 C   0  0  0  0  0  3  0  0  0  0  0  0
   51.4350   35.2490  130.2140 C   0  0  0  0  0  5  0  0  0  0  0  0
   50.6380   41.0540  125.2510 C   0  0  0  0  0  3  0  0  0  0  0  0
   50.0530   37.8590  126.5910 C   0  0  0  0  0  3  0  0  0  0  0  0
   53.1040   35.9110  134.8670 C   0  0  0  0  0  6  0  0  0  0  0  0
   52.0780   35.4800  133.8170 C   0  0  0  0  0  6  0  0  0  0  0  0
   52.6670   34.6290  132.6980 C   0  0  0  0  0  0  0  0  0  0  0  0
   49.7590   39.0610  129.7220 H   0  0  0  0  0  0  0  0  0  0  0  0
   50.5250   43.0580  127.8330 H   0  0  0  0  0  0  0  0  0  0  0  0
   48.5610   36.4760  128.4900 H   0  0  0  0  0  0  0  0  0  0  0  0
   54.6070   37.3760  134.9210 H   0  0  0  0  0  0  0  0  0  0  0  0
   48.8340   35.4440  130.7140 H   0  0  0  0  0  0  0  0  0  0  0  0
   51.1900   37.0070  131.4160 H   0  0  0  0  0  0  0  0  0  0  0  0
   52.4930   35.3730  129.9880 H   0  0  0  0  0  2  0  0  0  0  0  0
   51.0060   34.7720  129.3340 H   0  0  0  0  0  0  0  0  0  0  0  0
   49.9110   36.7790  126.6070 H   0  0  0  0  0  0  0  0  0  0  0  0
   52.6050   36.4860  135.6460 H   0  0  0  0  0  0  0  0  0  0  0  0
   51.6440   36.3840  133.3920 H   0  0  0  0  0  2  0  0  0  0  0  0
   51.2320   34.9780  134.2820 H   0  0  0  0  0  0  0  0  0  0  0  0
   53.1730   33.7330  133.0560 Hg  0  0  0  0  0  7  0  0  0  0  0  0
   53.4040   35.1780  132.1130 Hg  0  0  0  0  0 10  0  0  0  0  0  0
   53.8430   37.3020  133.4630 H   0  0  0  0  0  0  0  0  0  0  0  0
   54.8500   36.0750  133.9240 H   0  0  0  0  0  2  0  0  0  0  0  0
   50.8340   40.3010  123.3610 H   0  0  0  0  0  0  0  0  0  0  0  0
   51.0250   42.0290  123.4810 H   0  0  0  0  0  0  0  0  0  0  0  0
   47.3720   38.0440  130.4690 H   0  0  0  0  0  0  0  0  0  0  0  0
   49.1970   37.9630  131.8830 H   0  0  0  0  0  0  0  0  0  0  0  0
   54.1680   36.7520  134.2520 N   0  0  0  0  0  5  0  0  0  0  0  0
   50.6800   42.1870  125.9850 N   0  0  0  0  0  2  0  0  0  0  0  0
   50.2490   41.0260  128.0530 N   0  0  0  0  0  2  0  0  0  0  0  0
   50.8480   41.1380  123.9340 N   0  0  0  0  0  0  0  0  0  0  0  0
   50.2800   38.5360  125.4910 N   0  0  0  0  0  2  0  0  0  0  0  0
   50.0100   38.6300  127.7230 N   0  0  0  0  0  0  0  0  0  0  0  0
   54.9720   34.5280  135.3660 O   0  0  0  0  0  0  0  0  0  0  0  0
   47.4930   37.8100  129.5110 O   0  0  0  0  0  0  0  0  0  0  0  0
   48.7340   37.0910  131.7750 O   0  0  0  0  0  0  0  0  0  0  0  0
   51.0450   37.5170  129.4780 O   0  0  0  0  0  0  0  0  0  0  0  0
   52.9970   33.9550  136.2240 O   0  0  0  0  0  1  0  0  0  0  0  0
   51.2700   34.1480  131.6440 S   0  0  0  0  0  4  0  0  0  0  0  0
  1 12  1  0
  1 27  1  0
  1 41  1  0
  1 45  1  0
  2  4  1  0
  2 15  1  0
  2 40  1  0
  2 44  1  0
  3 16  1  0
  3 36  1  0
  3 37  1  0
  4  5  1  0
  4 17  1  0
  4 42  1  0
  5  7  1  0
  5 19  1  0
  5 43  1  0
  6  8  1  0
  6 37  1  0
  6 40  1  0
  7  9  1  0
  7 20  1  0
  7 44  1  0
  8 10  1  0
  8 39  1  0
  9 21  1  0
  9 22  1  0
  9 28  1  0
  9 46  1  0
 10 36  1  0
 10 38  1  0
 11 23  1  0
 11 39  1  0
 11 40  1  0
 12 13  1  0
 12 24  1  0
 12 27  1  0
 12 28  1  0
 12 35  1  0
 13 14  1  0
 13 25  1  0
 13 26  1  0
 13 27  1  0
 13 28  1  0
 14 27  1  0
 14 28  1  0
 14 46  1  0
 18 35  1  0
 21 28  1  0
 25 28  1  0
 27 28  1  0
 27 41  1  0
 27 46  1  0
 28 30  1  0
 28 35  1  0
 28 46  1  0
 29 35  1  0
 30 35  1  0
 31 38  1  0
 32 38  1  0
 33 42  1  0
 34 43  1  0
M  END
$$$$
