5tbi_B_PE8_501
     RDKit          3D

 59 58  0  0  0  0  0  0  0  0999 V2000
   17.7500   35.6890  107.3100 C   0  0  0  0  0  0  0  0  0  0  0  0
   18.1940   37.1150  107.6110 C   0  0  0  0  0  0  0  0  0  0  0  0
   20.1980   38.3060  107.8500 C   0  0  0  0  0  0  0  0  0  0  0  0
   21.6810   38.1410  108.1830 C   0  0  0  0  0  0  0  0  0  0  0  0
   23.6990   37.2560  107.4750 C   0  0  0  0  0  0  0  0  0  0  0  0
   24.3680   36.5080  106.3250 C   0  0  0  0  0  0  0  0  0  0  0  0
    9.1440   32.7690  106.4480 C   0  0  0  0  0  0  0  0  0  0  0  0
   24.0150   34.5480  105.0650 C   0  0  0  0  0  0  0  0  0  0  0  0
   23.0740   33.3440  105.0400 C   0  0  0  0  0  0  0  0  0  0  0  0
   24.0120   31.2070  105.4020 C   0  0  0  0  0  0  0  0  0  0  0  0
   25.3150   30.5110  105.0170 C   0  0  0  0  0  0  0  0  0  0  0  0
   10.5740   32.7340  105.9140 C   0  0  0  0  0  0  0  0  0  0  0  0
   12.2520   34.3770  106.1500 C   0  0  0  0  0  0  0  0  0  0  0  0
   13.4750   33.6180  105.6370 C   0  0  0  0  0  0  0  0  0  0  0  0
   15.4920   34.5250  104.7730 C   0  0  0  0  0  0  0  0  0  0  0  0
   15.8120   35.3680  106.0060 C   0  0  0  0  0  0  0  0  0  0  0  0
   18.5180   35.0960  107.3390 H   0  0  0  0  0  0  0  0  0  0  0  0
   17.0950   35.4060  107.9670 H   0  0  0  0  0  0  0  0  0  0  0  0
   17.6290   37.4910  108.3040 H   0  0  0  0  0  0  0  0  0  0  0  0
   18.1250   37.6530  106.8080 H   0  0  0  0  0  0  0  0  0  0  0  0
   20.1050   38.5760  106.9230 H   0  0  0  0  0  0  0  0  0  0  0  0
   19.8130   38.9870  108.4230 H   0  0  0  0  0  0  0  0  0  0  0  0
   21.7680   37.6220  108.9980 H   0  0  0  0  0  0  0  0  0  0  0  0
   22.0760   39.0160  108.3190 H   0  0  0  0  0  0  0  0  0  0  0  0
   24.1500   38.1030  107.6170 H   0  0  0  0  0  0  0  0  0  0  0  0
   23.7500   36.7210  108.2820 H   0  0  0  0  0  0  0  0  0  0  0  0
   25.3250   36.4650  106.4750 H   0  0  0  0  0  0  0  0  0  0  0  0
   24.1870   36.9630  105.4880 H   0  0  0  0  0  0  0  0  0  0  0  0
   24.9340   34.2470  104.9860 H   0  0  0  0  0  0  0  0  0  0  0  0
   23.8020   35.1450  104.3300 H   0  0  0  0  0  0  0  0  0  0  0  0
    8.7700   33.6550  106.3250 H   0  0  0  0  0  0  0  0  0  0  0  0
   22.7880   33.1360  105.9430 H   0  0  0  0  0  0  0  0  0  0  0  0
   22.3010   33.5450  104.4900 H   0  0  0  0  0  0  0  0  0  0  0  0
    9.1400   32.5380  107.3900 H   0  0  0  0  0  0  0  0  0  0  0  0
   24.0880   31.5650  106.3000 H   0  0  0  0  0  0  0  0  0  0  0  0
   23.2810   30.5700  105.3680 H   0  0  0  0  0  0  0  0  0  0  0  0
   25.2780   29.5780  105.2820 H   0  0  0  0  0  0  0  0  0  0  0  0
   25.4490   30.5730  104.0580 H   0  0  0  0  0  0  0  0  0  0  0  0
   27.0830   30.6960  105.5870 H   0  0  0  0  0  0  0  0  0  0  0  0
   10.6000   33.1320  105.0290 H   0  0  0  0  0  0  0  0  0  0  0  0
   10.8810   31.8150  105.8670 H   0  0  0  0  0  0  0  0  0  0  0  0
   11.7910   34.7950  105.4070 H   0  0  0  0  0  0  0  0  0  0  0  0
   12.5310   35.0550  106.7850 H   0  0  0  0  0  0  0  0  0  0  0  0
   14.0860   33.4430  106.3690 H   0  0  0  0  0  0  0  0  0  0  0  0
   13.1980   32.7820  105.2310 H   0  0  0  0  0  0  0  0  0  0  0  0
   15.8480   34.9540  103.9790 H   0  0  0  0  0  0  0  0  0  0  0  0
   15.8770   33.6400  104.8700 H   0  0  0  0  0  0  0  0  0  0  0  0
   15.3100   36.1970  105.9700 H   0  0  0  0  0  0  0  0  0  0  0  0
   15.5690   34.8760  106.8060 H   0  0  0  0  0  0  0  0  0  0  0  0
    7.6160   32.1500  105.5720 H   0  0  0  0  0  0  0  0  0  0  0  0
    8.3890   31.8330  105.7270 O   0  0  0  0  0  0  0  0  0  0  0  0
   17.1790   35.6530  106.0320 O   0  0  0  0  0  0  0  0  0  0  0  0
   19.5250   37.0950  108.0500 O   0  0  0  0  0  0  0  0  0  0  0  0
   22.3550   37.4880  107.1500 O   0  0  0  0  0  0  0  0  0  0  0  0
   23.8380   35.2150  106.2830 O   0  0  0  0  0  0  0  0  0  0  0  0
   23.7670   32.2510  104.5010 O   0  0  0  0  0  0  0  0  0  0  0  0
   26.3700   31.1500  105.6840 O   0  0  0  0  0  0  0  0  0  0  0  0
   11.3990   33.4620  106.7810 O   0  0  0  0  0  0  0  0  0  0  0  0
   14.0990   34.4300  104.6790 O   0  0  0  0  0  0  0  0  0  0  0  0
  1  2  1  0
  1 17  1  0
  1 18  1  0
  1 52  1  0
  2 19  1  0
  2 20  1  0
  2 53  1  0
  3  4  1  0
  3 21  1  0
  3 22  1  0
  3 53  1  0
  4 23  1  0
  4 24  1  0
  4 54  1  0
  5  6  1  0
  5 25  1  0
  5 26  1  0
  5 54  1  0
  6 27  1  0
  6 28  1  0
  6 55  1  0
  7 12  1  0
  7 31  1  0
  7 34  1  0
  7 51  1  0
  8  9  1  0
  8 29  1  0
  8 30  1  0
  8 55  1  0
  9 32  1  0
  9 33  1  0
  9 56  1  0
 10 11  1  0
 10 35  1  0
 10 36  1  0
 10 56  1  0
 11 37  1  0
 11 38  1  0
 11 57  1  0
 12 40  1  0
 12 41  1  0
 12 58  1  0
 13 14  1  0
 13 42  1  0
 13 43  1  0
 13 58  1  0
 14 44  1  0
 14 45  1  0
 14 59  1  0
 15 16  1  0
 15 46  1  0
 15 47  1  0
 15 59  1  0
 16 48  1  0
 16 49  1  0
 16 52  1  0
 39 57  1  0
 50 51  1  0
M  END
$$$$
