5tbj_B_PG6_505
     RDKit          3D

 44 43  0  0  0  0  0  0  0  0999 V2000
   24.0530   34.5770  105.4060 C   0  0  0  0  0  0  0  0  0  0  0  0
   14.5220   34.7000  105.2210 C   0  0  0  0  0  0  0  0  0  0  0  0
   13.0630   34.7410  105.6750 C   0  0  0  0  0  0  0  0  0  0  0  0
   11.6450   33.9540  107.3770 C   0  0  0  0  0  0  0  0  0  0  0  0
   24.8020   36.0040  107.1600 C   0  0  0  0  0  0  0  0  0  0  0  0
   23.3910   36.5290  107.3570 C   0  0  0  0  0  0  0  0  0  0  0  0
   22.3120   37.6490  109.1130 C   0  0  0  0  0  0  0  0  0  0  0  0
   21.3410   38.7670  108.7410 C   0  0  0  0  0  0  0  0  0  0  0  0
   19.3080   37.6360  109.1800 C   0  0  0  0  0  0  0  0  0  0  0  0
   17.9600   37.3910  108.5110 C   0  0  0  0  0  0  0  0  0  0  0  0
   16.7710   35.4670  107.8270 C   0  0  0  0  0  0  0  0  0  0  0  0
   16.5820   34.9830  106.3930 C   0  0  0  0  0  0  0  0  0  0  0  0
   14.7800   35.5660  104.8700 H   0  0  0  0  0  0  0  0  0  0  0  0
   14.6320   34.0220  104.5370 H   0  0  0  0  0  0  0  0  0  0  0  0
   23.1460   34.9160  105.4640 H   0  0  0  0  0  0  0  0  0  0  0  0
   12.4860   34.4870  104.9380 H   0  0  0  0  0  0  0  0  0  0  0  0
   12.8390   35.6390  105.9670 H   0  0  0  0  0  0  0  0  0  0  0  0
   24.0330   33.6430  105.1450 H   0  0  0  0  0  0  0  0  0  0  0  0
   10.9460   33.6500  106.7790 H   0  0  0  0  0  0  0  0  0  0  0  0
   11.4850   34.8800  107.6180 H   0  0  0  0  0  0  0  0  0  0  0  0
   11.6460   33.4080  108.1790 H   0  0  0  0  0  0  0  0  0  0  0  0
   24.5460   35.0870  104.7450 H   0  0  0  0  0  0  0  0  0  0  0  0
   25.2790   36.5620  106.5260 H   0  0  0  0  0  0  0  0  0  0  0  0
   25.2720   35.9880  108.0090 H   0  0  0  0  0  0  0  0  0  0  0  0
   23.0320   36.8120  106.5010 H   0  0  0  0  0  0  0  0  0  0  0  0
   22.8340   35.8230  107.7200 H   0  0  0  0  0  0  0  0  0  0  0  0
   22.6410   37.8000  110.0130 H   0  0  0  0  0  0  0  0  0  0  0  0
   21.8440   36.7990  109.0840 H   0  0  0  0  0  0  0  0  0  0  0  0
   21.1220   39.2880  109.5300 H   0  0  0  0  0  0  0  0  0  0  0  0
   21.7430   39.3410  108.0700 H   0  0  0  0  0  0  0  0  0  0  0  0
   19.6650   36.7980  109.5140 H   0  0  0  0  0  0  0  0  0  0  0  0
   19.1990   38.2610  109.9140 H   0  0  0  0  0  0  0  0  0  0  0  0
   17.2520   37.4200  109.1740 H   0  0  0  0  0  0  0  0  0  0  0  0
   17.8020   38.0640  107.8310 H   0  0  0  0  0  0  0  0  0  0  0  0
   16.7590   34.7090  108.4320 H   0  0  0  0  0  0  0  0  0  0  0  0
   16.0580   36.0810  108.0610 H   0  0  0  0  0  0  0  0  0  0  0  0
   17.2670   34.3330  106.1690 H   0  0  0  0  0  0  0  0  0  0  0  0
   16.6230   35.7340  105.7810 H   0  0  0  0  0  0  0  0  0  0  0  0
   24.6800   34.7010  106.6550 O   0  0  0  0  0  0  0  0  0  0  0  0
   23.3920   37.6080  108.2320 O   0  0  0  0  0  0  0  0  0  0  0  0
   20.1810   38.1750  108.2260 O   0  0  0  0  0  0  0  0  0  0  0  0
   18.0030   36.1220  107.9210 O   0  0  0  0  0  0  0  0  0  0  0  0
   15.3150   34.3840  106.3310 O   0  0  0  0  0  0  0  0  0  0  0  0
   12.8870   33.8460  106.7380 O   0  0  0  0  0  0  0  0  0  0  0  0
  1 15  1  0
  1 18  1  0
  1 22  1  0
  1 39  1  0
  2  3  1  0
  2 13  1  0
  2 14  1  0
  2 43  1  0
  3 16  1  0
  3 17  1  0
  3 44  1  0
  4 19  1  0
  4 20  1  0
  4 21  1  0
  4 44  1  0
  5  6  1  0
  5 23  1  0
  5 24  1  0
  5 39  1  0
  6 25  1  0
  6 26  1  0
  6 40  1  0
  7  8  1  0
  7 27  1  0
  7 28  1  0
  7 40  1  0
  8 29  1  0
  8 30  1  0
  8 41  1  0
  9 10  1  0
  9 31  1  0
  9 32  1  0
  9 41  1  0
 10 33  1  0
 10 34  1  0
 10 42  1  0
 11 12  1  0
 11 35  1  0
 11 36  1  0
 11 42  1  0
 12 37  1  0
 12 38  1  0
 12 43  1  0
M  END
$$$$
