5u4x_A_SAH_501
     RDKit          3D

 26 28  0  0  0  0  0  0  0  0999 V2000
   14.7640   34.3400   13.9960 C   0  0  0  0  0  3  0  0  0  0  0  0
   13.1860   26.4190   12.1330 C   0  0  0  0  0  3  0  0  0  0  0  0
   15.3800   23.8330    9.2440 C   0  0  0  0  0  2  0  0  0  0  0  0
   11.8080   26.5950   12.7440 C   0  0  0  0  0  3  0  0  0  0  0  0
   11.8060   28.0880   13.0820 C   0  0  0  0  0  3  0  0  0  0  0  0
   14.4450   24.4710   11.3070 C   0  0  0  0  0  3  0  0  0  0  0  0
   13.2630   28.4570   13.3090 C   0  0  0  0  0  3  0  0  0  0  0  0
   14.9460   23.2370   11.9340 C   0  0  0  0  0  3  0  0  0  0  0  0
   13.6450   28.8170   14.7400 C   0  0  0  0  0  2  0  0  0  0  0  0
   15.6960   22.3270   11.0630 C   0  0  0  0  0  3  0  0  0  0  0  0
   13.8980   24.3740   13.4260 C   0  0  0  0  0  2  0  0  0  0  0  0
   14.5600   33.2550   12.9700 C   0  0  0  0  0  3  0  0  0  0  0  0
   13.5980   32.1940   13.4970 C   0  0  0  0  0  2  0  0  0  0  0  0
   14.0350   31.5350   14.8070 C   0  0  0  0  0  2  0  0  0  0  0  0
   15.8570   32.6820   12.6330 N   0  0  0  0  0  1  0  0  0  0  0  0
   15.8680   22.6830    9.7620 N   0  0  0  0  0  2  0  0  0  0  0  0
   14.6780   24.7190    9.9900 N   0  0  0  0  0  2  0  0  0  0  0  0
   16.1830   21.1850   11.6070 N   0  0  0  0  0  1  0  0  0  0  0  0
   14.5800   23.2190   13.2230 N   0  0  0  0  0  2  0  0  0  0  0  0
   13.8200   25.1010   12.2770 N   0  0  0  0  0  0  0  0  0  0  0  0
   13.9070   35.1800   14.1760 O   0  0  0  0  0  1  0  0  0  0  0  0
   10.8210   26.1970   11.8040 O   0  0  0  0  0  1  0  0  0  0  0  0
   11.2760   28.8620   12.0010 O   0  0  0  0  0  1  0  0  0  0  0  0
   14.0080   27.3010   12.8920 O   0  0  0  0  0  0  0  0  0  0  0  0
   15.7810   34.3930   14.6830 O   0  0  0  0  0  1  0  0  0  0  0  0
   12.8460   30.3110   15.3000 S   0  0  0  0  0  0  0  0  0  0  0  0
  1 12  1  0
  1 21  1  0
  1 25  1  0
  2  4  1  0
  2 20  1  0
  2 24  1  0
  3 16  1  0
  3 17  1  0
  4  5  1  0
  4 22  1  0
  5  7  1  0
  5 23  1  0
  6  8  1  0
  6 17  1  0
  6 20  1  0
  7  9  1  0
  7 24  1  0
  8 10  1  0
  8 19  1  0
  9 26  1  0
 10 16  1  0
 10 18  1  0
 11 19  1  0
 11 20  1  0
 12 13  1  0
 12 15  1  0
 13 14  1  0
 14 26  1  0
M  END
$$$$
