6arj_A_BW4_502
     RDKit          3D

 82221  0  0  0  0  0  0  0  0999 V2000
   -7.7640   20.9180   24.4450 C   0  0  0  0  0  7  0  0  0  0  0  0
   -7.7590   20.9190   24.4420 C   0  0  0  0  0  7  0  0  0  0  0  0
   -7.0320   23.0690   23.7380 C   0  0  0  0  0  7  0  0  0  0  0  0
   -7.0260   23.0720   23.7350 C   0  0  0  0  0  7  0  0  0  0  0  0
   -5.6990   22.6580   23.8750 C   0  0  0  0  0  7  0  0  0  0  0  0
   -5.6920   22.6580   23.8690 C   0  0  0  0  0  7  0  0  0  0  0  0
   -5.4550   21.3360   24.2920 C   0  0  0  0  0  7  0  0  0  0  0  0
   -5.4480   21.3330   24.2840 C   0  0  0  0  0  7  0  0  0  0  0  0
  -14.1910   21.6450   19.0300 C   0  0  0  0  0  3  0  0  0  0  0  0
  -14.1900   21.6450   19.0290 C   0  0  0  0  0  3  0  0  0  0  0  0
  -13.2190   19.5900   19.8300 C   0  0  0  0  0  5  0  0  0  0  0  0
  -13.2160   19.5930   19.8310 C   0  0  0  0  0  5  0  0  0  0  0  0
  -12.9820   18.7300   21.0930 C   0  0  0  0  0  7  0  0  0  0  0  0
  -12.9810   18.7330   21.0930 C   0  0  0  0  0  7  0  0  0  0  0  0
  -11.7320   19.2000   21.8520 C   0  0  0  0  0  5  0  0  0  0  0  0
  -11.7310   19.2000   21.8530 C   0  0  0  0  0  5  0  0  0  0  0  0
  -10.7620   18.7920   24.0000 C   0  0  0  0  0  7  0  0  0  0  0  0
  -10.7570   18.7890   23.9990 C   0  0  0  0  0  7  0  0  0  0  0  0
  -10.8220   18.0950   25.1960 C   0  0  0  0  0  5  0  0  0  0  0  0
  -10.8190   18.0920   25.1940 C   0  0  0  0  0  5  0  0  0  0  0  0
   -9.8560   18.3310   26.1550 C   0  0  0  0  0  5  0  0  0  0  0  0
   -9.8530   18.3290   26.1540 C   0  0  0  0  0  5  0  0  0  0  0  0
   -8.8450   19.2620   25.9210 C   0  0  0  0  0  7  0  0  0  0  0  0
   -8.8430   19.2610   25.9200 C   0  0  0  0  0  7  0  0  0  0  0  0
   -8.7850   19.9830   24.7210 C   0  0  0  0  0  7  0  0  0  0  0  0
   -8.7810   19.9820   24.7200 C   0  0  0  0  0  7  0  0  0  0  0  0
   -9.7530   19.7310   23.7500 C   0  0  0  0  0  5  0  0  0  0  0  0
   -9.7480   19.7290   23.7480 C   0  0  0  0  0  5  0  0  0  0  0  0
   -3.8260   19.4210   24.9420 C   0  0  0  0  0  5  0  0  0  0  0  0
   -2.8270   21.2960   24.6470 C   0  0  0  0  0  5  0  0  0  0  0  0
   -2.3820   19.8520   25.0160 C   0  0  0  0  0  9  0  0  0  0  0  0
   -2.3820   19.8860   25.0080 C   0  0  0  0  0  9  0  0  0  0  0  0
   -3.8180   19.4370   24.9410 C   0  0  0  0  0  5  0  0  0  0  0  0
   -2.8170   21.2730   24.6640 C   0  0  0  0  0  5  0  0  0  0  0  0
   -1.7570   19.7980   26.4060 C   0  0  0  0  0  5  0  0  0  0  0  0
   -1.5270   19.2280   23.9280 C   0  0  0  0  0  5  0  0  0  0  0  0
   -1.4680   18.3530   26.7740 C   0  0  0  0  0  5  0  0  0  0  0  0
   -1.2480   17.7580   24.2640 C   0  0  0  0  0  5  0  0  0  0  0  0
   -1.4810   18.2970   26.7750 C   0  0  0  0  0  5  0  0  0  0  0  0
   -1.2700   17.7910   24.2720 C   0  0  0  0  0  5  0  0  0  0  0  0
   -1.7510   19.7500   26.4100 C   0  0  0  0  0  5  0  0  0  0  0  0
   -1.5270   19.2570   23.9250 C   0  0  0  0  0  5  0  0  0  0  0  0
    0.2140   16.7240   25.9230 C   0  0  0  0  0  7  0  0  0  0  0  0
    0.2800   16.8530   25.9090 C   0  0  0  0  0  7  0  0  0  0  0  0
    0.6580   16.8440   23.6100 C   0  0  0  0  0  3  0  0  0  0  0  0
    0.7140   16.7630   23.6410 C   0  0  0  0  0  3  0  0  0  0  0  0
   -4.6220   23.5260   23.5870 C   0  0  0  0  0  3  0  0  0  0  0  0
   -4.6130   23.5240   23.5790 C   0  0  0  0  0  3  0  0  0  0  0  0
   -7.3940   24.3220   23.3510 C   0  0  0  0  0  7  0  0  0  0  0  0
   -7.3930   24.3160   23.3500 C   0  0  0  0  0  7  0  0  0  0  0  0
   -8.1200   24.5960   22.2620 C   0  0  0  0  0  7  0  0  0  0  0  0
   -7.1400   25.4840   23.9890 C   0  0  0  0  0  7  0  0  0  0  0  0
   -8.6390   23.5920   21.2450 C   0  0  0  0  0  3  0  0  0  0  0  0
   -6.3430   25.6970   25.2810 C   0  0  0  0  0  3  0  0  0  0  0  0
   -8.1250   24.6030   22.2640 C   0  0  0  0  0  7  0  0  0  0  0  0
   -7.1320   25.4780   23.9830 C   0  0  0  0  0  7  0  0  0  0  0  0
   -8.6360   23.5960   21.2470 C   0  0  0  0  0  3  0  0  0  0  0  0
   -6.3340   25.6830   25.2760 C   0  0  0  0  0  3  0  0  0  0  0  0
   -7.7240   19.4660   27.1900 Cl  0  0  0  0  0  3  0  0  0  0  0  0
   -7.7240   19.4680   27.1880 Cl  0  0  0  0  0  3  0  0  0  0  0  0
   -6.4930   20.5200   24.5620 N   0  0  0  0  0  5  0  0  0  0  0  0
   -6.4880   20.5190   24.5550 N   0  0  0  0  0  5  0  0  0  0  0  0
   -8.0210   22.1800   24.0240 N   0  0  0  0  0  5  0  0  0  0  0  0
   -8.0150   22.1820   24.0240 N   0  0  0  0  0  5  0  0  0  0  0  0
  -13.8060   20.8960   20.2230 N   0  0  0  0  0  5  0  0  0  0  0  0
  -13.8060   20.8970   20.2240 N   0  0  0  0  0  5  0  0  0  0  0  0
   -4.2330   20.8020   24.5000 N   0  0  0  0  0  7  0  0  0  0  0  0
   -4.2280   20.7910   24.4940 N   0  0  0  0  0  7  0  0  0  0  0  0
   -0.8040   17.5680   25.6710 N   0  0  0  0  0  7  0  0  0  0  0  0
   -0.7840   17.6390   25.6670 N   0  0  0  0  0  7  0  0  0  0  0  0
   -8.3450   25.9150   22.1580 N   0  0  0  0  0  5  0  0  0  0  0  0
   -7.6650   26.5060   23.3280 N   0  0  0  0  0  5  0  0  0  0  0  0
  -12.8050   17.3650   20.7250 O   0  0  0  0  0  3  0  0  0  0  0  0
  -12.8040   17.3630   20.7250 O   0  0  0  0  0  3  0  0  0  0  0  0
  -11.7350   18.5230   23.1230 O   0  0  0  0  0  5  0  0  0  0  0  0
  -11.7290   18.5190   23.1220 O   0  0  0  0  0  5  0  0  0  0  0  0
    0.6060   16.5410   27.0760 O   0  0  0  0  0  3  0  0  0  0  0  0
    0.7060   16.7160   27.0570 O   0  0  0  0  0  3  0  0  0  0  0  0
    0.8270   16.0650   24.8980 O   0  0  0  0  0  5  0  0  0  0  0  0
    0.9030   16.2080   24.8790 O   0  0  0  0  0  5  0  0  0  0  0  0
   -8.3300   25.9580   22.1620 O   0  0  0  0  0  5  0  0  0  0  0  0
   -7.6940   26.5150   23.3170 O   0  0  0  0  0  5  0  0  0  0  0  0
  1  2  1  0
  1 25  1  0
  1 26  1  0
  1 61  1  0
  1 62  1  0
  1 63  1  0
  1 64  1  0
  2 25  1  0
  2 26  1  0
  2 61  1  0
  2 62  1  0
  2 63  1  0
  2 64  1  0
  3  4  1  0
  3  5  1  0
  3  6  1  0
  3 49  1  0
  3 50  1  0
  3 63  1  0
  3 64  1  0
  4  5  1  0
  4  6  1  0
  4 49  1  0
  4 50  1  0
  4 63  1  0
  4 64  1  0
  5  6  1  0
  5  7  1  0
  5  8  1  0
  5 47  1  0
  5 48  1  0
  6  7  1  0
  6  8  1  0
  6 47  1  0
  6 48  1  0
  7  8  1  0
  7 61  1  0
  7 62  1  0
  7 67  1  0
  7 68  1  0
  8 61  1  0
  8 62  1  0
  8 67  1  0
  8 68  1  0
  9 10  1  0
  9 65  1  0
  9 66  1  0
 10 65  1  0
 10 66  1  0
 11 12  1  0
 11 13  1  0
 11 14  1  0
 11 65  1  0
 11 66  1  0
 12 13  1  0
 12 14  1  0
 12 65  1  0
 12 66  1  0
 13 14  1  0
 13 15  1  0
 13 16  1  0
 13 73  1  0
 13 74  1  0
 14 15  1  0
 14 16  1  0
 14 73  1  0
 14 74  1  0
 15 16  1  0
 15 75  1  0
 15 76  1  0
 16 75  1  0
 16 76  1  0
 17 18  1  0
 17 19  1  0
 17 20  1  0
 17 27  1  0
 17 28  1  0
 17 75  1  0
 17 76  1  0
 18 19  1  0
 18 20  1  0
 18 27  1  0
 18 28  1  0
 18 75  1  0
 18 76  1  0
 19 20  1  0
 19 21  1  0
 19 22  1  0
 20 21  1  0
 20 22  1  0
 21 22  1  0
 21 23  1  0
 21 24  1  0
 22 23  1  0
 22 24  1  0
 23 24  1  0
 23 25  1  0
 23 26  1  0
 23 59  1  0
 23 60  1  0
 24 25  1  0
 24 26  1  0
 24 59  1  0
 24 60  1  0
 25 26  1  0
 25 27  1  0
 25 28  1  0
 26 27  1  0
 26 28  1  0
 27 28  1  0
 29 31  1  0
 29 32  1  0
 29 33  1  0
 29 67  1  0
 29 68  1  0
 30 31  1  0
 30 32  1  0
 30 34  1  0
 30 67  1  0
 30 68  1  0
 31 32  1  0
 31 33  1  0
 31 34  1  0
 31 35  1  0
 31 36  1  0
 31 41  1  0
 31 42  1  0
 32 33  1  0
 32 34  1  0
 32 35  1  0
 32 36  1  0
 32 41  1  0
 32 42  1  0
 33 67  1  0
 33 68  1  0
 34 67  1  0
 34 68  1  0
 35 37  1  0
 35 39  1  0
 35 41  1  0
 36 38  1  0
 36 40  1  0
 36 42  1  0
 37 39  1  0
 37 41  1  0
 37 69  1  0
 37 70  1  0
 38 40  1  0
 38 42  1  0
 38 69  1  0
 38 70  1  0
 39 41  1  0
 39 69  1  0
 39 70  1  0
 40 42  1  0
 40 69  1  0
 40 70  1  0
 43 44  1  0
 43 69  1  0
 43 70  1  0
 43 77  1  0
 43 78  1  0
 43 79  1  0
 43 80  1  0
 44 69  1  0
 44 70  1  0
 44 77  1  0
 44 78  1  0
 44 79  1  0
 44 80  1  0
 45 46  1  0
 45 79  1  0
 45 80  1  0
 46 79  1  0
 46 80  1  0
 47 48  1  0
 49 50  1  0
 49 51  1  0
 49 52  1  0
 49 55  1  0
 49 56  1  0
 50 51  1  0
 50 52  1  0
 50 55  1  0
 50 56  1  0
 51 53  1  0
 51 55  1  0
 51 57  1  0
 51 71  1  0
 51 81  1  0
 52 54  1  0
 52 56  1  0
 52 58  1  0
 52 72  1  0
 52 82  1  0
 53 55  1  0
 53 57  1  0
 54 56  1  0
 54 58  1  0
 55 57  1  0
 55 71  1  0
 55 81  1  0
 56 58  1  0
 56 72  1  0
 56 82  1  0
 59 60  1  0
 61 62  1  0
 63 64  1  0
 65 66  1  0
 67 68  1  0
 69 70  1  0
 71 72  1  0
 71 81  1  0
 71 82  1  0
 72 81  1  0
 72 82  1  0
 73 74  1  0
 75 76  1  0
 77 78  1  0
 79 80  1  0
 81 82  1  0
M  END
$$$$
