6d2l_A_FTG_501
     RDKit          3D

 44 48  0  0  0  0  0  0  0  0999 V2000
   13.5420  -40.4040   31.2840 C   0  0  0  0  0  3  0  0  0  0  0  0
   13.5370  -39.5710   29.9940 C   0  0  0  0  0  3  0  0  0  0  0  0
   13.7950  -30.5730   31.3940 C   0  0  0  0  0  2  0  0  0  0  0  0
   12.8450  -30.9850   32.4910 C   0  0  0  0  0  3  0  0  0  0  0  0
   12.2000  -30.0320   33.2630 C   0  0  0  0  0  2  0  0  0  0  0  0
   11.4370  -30.3950   34.3590 C   0  0  0  0  0  2  0  0  0  0  0  0
   11.3020  -31.7340   34.6900 C   0  0  0  0  0  3  0  0  0  0  0  0
   11.9080  -32.7010   33.9050 C   0  0  0  0  0  2  0  0  0  0  0  0
   12.6720  -32.3210   32.8140 C   0  0  0  0  0  2  0  0  0  0  0  0
   16.7060  -37.0700   28.0140 C   0  0  0  0  0  2  0  0  0  0  0  0
   18.4700  -37.4740   26.3150 C   0  0  0  0  0  2  0  0  0  0  0  0
   15.0000  -39.1420   29.8410 C   0  0  0  0  0  3  0  0  0  0  0  0
   18.0530  -36.4790   25.2600 C   0  0  0  0  0  3  0  0  0  0  0  0
   18.9770  -35.5990   24.7140 C   0  0  0  0  0  2  0  0  0  0  0  0
   18.6070  -34.7160   23.7130 C   0  0  0  0  0  2  0  0  0  0  0  0
   17.3020  -34.6870   23.2590 C   0  0  0  0  0  2  0  0  0  0  0  0
   16.3710  -35.5500   23.8010 C   0  0  0  0  0  2  0  0  0  0  0  0
   16.7460  -36.4440   24.7920 C   0  0  0  0  0  2  0  0  0  0  0  0
   14.9690  -40.9510   31.2920 C   0  0  0  0  0  3  0  0  0  0  0  0
   15.8530  -42.6070   33.0160 C   0  0  0  0  0  3  0  0  0  0  0  0
   16.4730  -44.7210   32.9550 C   0  0  0  0  0  2  0  0  0  0  0  0
   16.8090  -43.6020   34.9550 C   0  0  0  0  0  3  0  0  0  0  0  0
   15.2560  -37.6580   30.0140 C   0  0  0  0  0  2  0  0  0  0  0  0
   16.2590  -42.4680   34.3360 C   0  0  0  0  0  3  0  0  0  0  0  0
   15.6250  -40.5420   33.7050 C   0  0  0  0  0  2  0  0  0  0  0  0
   16.6370  -37.2300   29.5240 C   0  0  0  0  0  3  0  0  0  0  0  0
   17.2160  -36.0600   30.3330 C   0  0  0  0  0  2  0  0  0  0  0  0
   16.2880  -34.8790   30.6110 C   0  0  0  0  0  2  0  0  0  0  0  0
   17.1440  -33.7280   31.2200 C   0  0  0  0  0  3  0  0  0  0  0  0
   16.4070  -32.3820   30.9760 C   0  0  0  0  0  3  0  0  0  0  0  0
   15.2210  -30.4600   31.9050 C   0  0  0  0  0  2  0  0  0  0  0  0
   15.8620  -31.7610   32.0180 N   0  0  0  0  0  2  0  0  0  0  0  0
   17.6060  -33.8680   32.6120 N   0  0  0  0  0  1  0  0  0  0  0  0
   18.1370  -37.0480   27.6720 N   0  0  0  0  0  2  0  0  0  0  0  0
   15.4540  -41.3530   32.6120 N   0  0  0  0  0  0  0  0  0  0  0  0
   15.9170  -43.7220   32.2690 N   0  0  0  0  0  2  0  0  0  0  0  0
   16.9200  -44.7280   34.2180 N   0  0  0  0  0  2  0  0  0  0  0  0
   17.2330  -43.6280   36.2210 N   0  0  0  0  0  1  0  0  0  0  0  0
   16.1030  -41.1570   34.7610 N   0  0  0  0  0  2  0  0  0  0  0  0
   12.5920  -41.4540   31.2000 O   0  0  0  0  0  1  0  0  0  0  0  0
   13.1410  -40.3030   28.8410 O   0  0  0  0  0  1  0  0  0  0  0  0
   10.6070  -32.0750   35.8220 O   0  0  0  0  0  1  0  0  0  0  0  0
   16.3590  -31.9380   29.8340 O   0  0  0  0  0  1  0  0  0  0  0  0
   15.7580  -39.8800   30.8250 O   0  0  0  0  0  0  0  0  0  0  0  0
  1  2  1  0
  1 19  1  0
  1 40  1  0
  2 12  1  0
  2 41  1  0
  3  4  1  0
  3 31  1  0
  4  5  1  0
  4  9  1  0
  5  6  1  0
  6  7  1  0
  7  8  1  0
  7 42  1  0
  8  9  1  0
 10 26  1  0
 10 34  1  0
 11 13  1  0
 11 34  1  0
 12 23  1  0
 12 44  1  0
 13 14  1  0
 13 18  1  0
 14 15  1  0
 15 16  1  0
 16 17  1  0
 17 18  1  0
 19 35  1  0
 19 44  1  0
 20 24  1  0
 20 35  1  0
 20 36  1  0
 21 36  1  0
 21 37  1  0
 22 24  1  0
 22 37  1  0
 22 38  1  0
 23 26  1  0
 24 39  1  0
 25 35  1  0
 25 39  1  0
 26 27  1  0
 27 28  1  0
 28 29  1  0
 29 30  1  0
 29 33  1  0
 30 32  1  0
 30 43  1  0
 31 32  1  0
M  END
$$$$
