6s70_A_KYB_501
     RDKit          3D

 32 34  0  0  0  0  0  0  0  0999 V2000
   11.6210   12.6540   75.7710 C   0  0  0  0  0  3  0  0  0  0  0  0
   11.2140   12.0360   76.8810 C   0  0  0  0  0  3  0  0  0  0  0  0
   12.3150   10.9390   77.1610 C   0  0  0  0  0  3  0  0  0  0  0  0
   12.7940    9.2840   78.8950 C   0  0  0  0  0  3  0  0  0  0  0  0
   12.9890    6.9900   79.0230 C   0  0  0  0  0  2  0  0  0  0  0  0
   13.2650    8.1680   80.9870 C   0  0  0  0  0  3  0  0  0  0  0  0
   13.0480    9.3720   80.2360 C   0  0  0  0  0  3  0  0  0  0  0  0
   12.7180   11.3870   79.4600 C   0  0  0  0  0  2  0  0  0  0  0  0
   13.2400   12.4780   75.7300 C   0  0  0  0  0  3  0  0  0  0  0  0
   13.9010   13.8330   75.9480 C   0  0  0  0  0  2  0  0  0  0  0  0
   15.1690   14.2880   73.8840 C   0  0  0  0  0  2  0  0  0  0  0  0
   14.7640   14.3070   72.3690 C   0  0  0  0  0  2  0  0  0  0  0  0
   15.6440   13.2970   71.5440 C   0  0  0  0  0  2  0  0  0  0  0  0
   14.0910   16.0980   75.0910 C   0  0  0  0  0  2  0  0  0  0  0  0
   14.8440   16.4300   76.4100 C   0  0  0  0  0  2  0  0  0  0  0  0
   15.5180   17.8640   76.4590 C   0  0  0  0  0  2  0  0  0  0  0  0
   14.5190   18.9260   76.9630 C   0  0  0  0  0  2  0  0  0  0  0  0
   14.5960   20.2660   76.1470 C   0  0  0  0  0  2  0  0  0  0  0  0
   13.2830   22.2990   76.3480 C   0  0  0  0  0  3  0  0  0  0  0  0
   12.5630   10.5800   78.4210 N   0  0  0  0  0  0  0  0  0  0  0  0
   12.7600    8.0850   78.2880 N   0  0  0  0  0  2  0  0  0  0  0  0
   13.2460    7.0530   80.3400 N   0  0  0  0  0  2  0  0  0  0  0  0
   13.5010    8.2140   82.4530 N   0  0  0  0  0  1  0  0  0  0  0  0
   12.9760   10.6650   80.5830 N   0  0  0  0  0  2  0  0  0  0  0  0
   13.9820   14.6400   74.7500 N   0  0  0  0  0  0  0  0  0  0  0  0
   17.1270   13.4780   71.7450 N   0  0  0  0  0  1  0  0  0  0  0  0
   13.9260   21.2900   76.9240 N   0  0  0  0  0  2  0  0  0  0  0  0
   12.6810   23.2200   77.1770 N   0  0  0  0  0  1  0  0  0  0  0  0
   13.2090   22.4870   74.9830 N   0  0  0  0  0  1  0  0  0  0  0  0
   11.2380   12.0990   74.4050 O   0  0  0  0  0  1  0  0  0  0  0  0
    9.8800   11.4080   76.7000 O   0  0  0  0  0  1  0  0  0  0  0  0
   13.5940   11.6490   76.6890 O   0  0  0  0  0  0  0  0  0  0  0  0
  1  2  1  0
  1  9  1  0
  1 30  1  0
  2  3  1  0
  2 31  1  0
  3 20  1  0
  3 32  1  0
  4  7  1  0
  4 20  1  0
  4 21  1  0
  5 21  1  0
  5 22  1  0
  6  7  1  0
  6 22  1  0
  6 23  1  0
  7 24  1  0
  8 20  1  0
  8 24  1  0
  9 10  1  0
  9 32  1  0
 10 25  1  0
 11 12  1  0
 11 25  1  0
 12 13  1  0
 13 26  1  0
 14 15  1  0
 14 25  1  0
 15 16  1  0
 16 17  1  0
 17 18  1  0
 18 27  1  0
 19 27  1  0
 19 28  1  0
 19 29  1  0
M  END
$$$$
