6s70_D_KYB_501
     RDKit          3D

 32 34  0  0  0  0  0  0  0  0999 V2000
   12.9080   28.0960   13.5040 C   0  0  0  0  0  3  0  0  0  0  0  0
   13.0280   26.8130   13.1920 C   0  0  0  0  0  3  0  0  0  0  0  0
   14.4370   26.7270   12.5530 C   0  0  0  0  0  3  0  0  0  0  0  0
   15.7270   24.8930   11.7550 C   0  0  0  0  0  3  0  0  0  0  0  0
   16.6540   24.1940    9.7650 C   0  0  0  0  0  2  0  0  0  0  0  0
   17.0040   22.8940   11.5820 C   0  0  0  0  0  3  0  0  0  0  0  0
   16.2520   23.8190   12.3660 C   0  0  0  0  0  3  0  0  0  0  0  0
   15.1800   24.9760   13.8300 C   0  0  0  0  0  2  0  0  0  0  0  0
   14.4270   28.7490   13.6170 C   0  0  0  0  0  3  0  0  0  0  0  0
   14.8040   29.2410   15.0260 C   0  0  0  0  0  2  0  0  0  0  0  0
   14.1150   31.5540   14.6240 C   0  0  0  0  0  2  0  0  0  0  0  0
   15.3380   32.5110   14.9060 C   0  0  0  0  0  2  0  0  0  0  0  0
   15.4600   33.6610   13.8440 C   0  0  0  0  0  2  0  0  0  0  0  0
   14.3760   30.7540   16.9130 C   0  0  0  0  0  2  0  0  0  0  0  0
   14.0960   29.7470   18.0370 C   0  0  0  0  0  2  0  0  0  0  0  0
   14.9230   30.1420   19.3790 C   0  0  0  0  0  2  0  0  0  0  0  0
   14.0870   30.1960   20.6790 C   0  0  0  0  0  2  0  0  0  0  0  0
   12.7660   31.0270   20.4730 C   0  0  0  0  0  2  0  0  0  0  0  0
   12.0610   31.0560   22.8300 C   0  0  0  0  0  3  0  0  0  0  0  0
   15.0490   25.5940   12.7050 N   0  0  0  0  0  0  0  0  0  0  0  0
   15.9360   25.0700   10.4550 N   0  0  0  0  0  2  0  0  0  0  0  0
   17.1780   23.1240   10.3390 N   0  0  0  0  0  2  0  0  0  0  0  0
   17.5760   21.7130   12.1840 N   0  0  0  0  0  1  0  0  0  0  0  0
   15.9190   23.8870   13.6290 N   0  0  0  0  0  2  0  0  0  0  0  0
   14.0110   30.3600   15.5270 N   0  0  0  0  0  0  0  0  0  0  0  0
   16.9300   33.8370   13.4870 N   0  0  0  0  0  1  0  0  0  0  0  0
   12.2780   31.6600   21.6750 N   0  0  0  0  0  2  0  0  0  0  0  0
   11.6110   31.8680   23.8070 N   0  0  0  0  0  1  0  0  0  0  0  0
   12.2590   29.7340   23.1320 N   0  0  0  0  0  1  0  0  0  0  0  0
   12.2650   29.0130   12.5320 O   0  0  0  0  0  1  0  0  0  0  0  0
   12.0610   26.4030   12.2130 O   0  0  0  0  0  1  0  0  0  0  0  0
   15.2430   27.8100   13.3390 O   0  0  0  0  0  0  0  0  0  0  0  0
  1  2  1  0
  1  9  1  0
  1 30  1  0
  2  3  1  0
  2 31  1  0
  3 20  1  0
  3 32  1  0
  4  7  1  0
  4 20  1  0
  4 21  1  0
  5 21  1  0
  5 22  1  0
  6  7  1  0
  6 22  1  0
  6 23  1  0
  7 24  1  0
  8 20  1  0
  8 24  1  0
  9 10  1  0
  9 32  1  0
 10 25  1  0
 11 12  1  0
 11 25  1  0
 12 13  1  0
 13 26  1  0
 14 15  1  0
 14 25  1  0
 15 16  1  0
 16 17  1  0
 17 18  1  0
 18 27  1  0
 19 27  1  0
 19 28  1  0
 19 29  1  0
M  END
$$$$
