6s77_D_KXW_501
     RDKit          3D

 36 39  0  0  0  0  0  0  0  0999 V2000
  -11.4020   27.5460  -14.1020 C   0  0  0  0  0  3  0  0  0  0  0  0
  -11.4920   26.3280  -13.8380 C   0  0  0  0  0  3  0  0  0  0  0  0
  -12.9810   26.1370  -13.1790 C   0  0  0  0  0  3  0  0  0  0  0  0
  -14.0870   24.0600  -12.3870 C   0  0  0  0  0  3  0  0  0  0  0  0
  -14.8310   23.3470  -10.3490 C   0  0  0  0  0  2  0  0  0  0  0  0
  -15.1230   21.9650  -12.1430 C   0  0  0  0  0  3  0  0  0  0  0  0
  -14.5100   22.9170  -12.9630 C   0  0  0  0  0  3  0  0  0  0  0  0
  -13.6110   24.1580  -14.4990 C   0  0  0  0  0  2  0  0  0  0  0  0
  -12.8760   28.0090  -14.4000 C   0  0  0  0  0  3  0  0  0  0  0  0
  -13.1500   28.1910  -15.7670 C   0  0  0  0  0  2  0  0  0  0  0  0
  -14.1990   30.3660  -15.3750 C   0  0  0  0  0  2  0  0  0  0  0  0
  -13.5220   31.6800  -14.9110 C   0  0  0  0  0  2  0  0  0  0  0  0
  -14.3850   32.4090  -13.8840 C   0  0  0  0  0  3  0  0  0  0  0  0
  -13.6870   33.7150  -13.7660 C   0  0  0  0  0  3  0  0  0  0  0  0
  -13.4880   29.9050  -17.5590 C   0  0  0  0  0  2  0  0  0  0  0  0
  -12.7480   28.9480  -18.5330 C   0  0  0  0  0  2  0  0  0  0  0  0
  -13.5550   28.7270  -19.8150 C   0  0  0  0  0  2  0  0  0  0  0  0
  -12.6210   29.8800  -21.8500 C   0  0  0  0  0  3  0  0  0  0  0  0
  -12.5040   31.0200  -22.6540 C   0  0  0  0  0  2  0  0  0  0  0  0
  -11.7190   30.9500  -23.8000 C   0  0  0  0  0  2  0  0  0  0  0  0
  -11.0970   29.7490  -24.0950 C   0  0  0  0  0  2  0  0  0  0  0  0
  -11.2630   28.6570  -23.2350 C   0  0  0  0  0  2  0  0  0  0  0  0
  -13.5270   24.8200  -13.3550 N   0  0  0  0  0  0  0  0  0  0  0  0
  -14.2610   24.2470  -11.0790 N   0  0  0  0  0  2  0  0  0  0  0  0
  -15.2550   22.2280  -10.8640 N   0  0  0  0  0  2  0  0  0  0  0  0
  -15.6000   20.7220  -12.6510 N   0  0  0  0  0  1  0  0  0  0  0  0
  -14.1960   23.0020  -14.2670 N   0  0  0  0  0  2  0  0  0  0  0  0
  -13.1390   29.6340  -16.1390 N   0  0  0  0  0  0  0  0  0  0  0  0
  -15.7060   32.6000  -14.3840 N   0  0  0  0  0  1  0  0  0  0  0  0
  -13.4450   29.9230  -20.6430 N   0  0  0  0  0  2  0  0  0  0  0  0
  -12.0190   28.7520  -22.1460 N   0  0  0  0  0  2  0  0  0  0  0  0
  -10.9350   28.4120  -12.9760 O   0  0  0  0  0  1  0  0  0  0  0  0
  -10.5120   25.8180  -12.9000 O   0  0  0  0  0  1  0  0  0  0  0  0
  -13.7280   26.9160  -13.8250 O   0  0  0  0  0  0  0  0  0  0  0  0
  -12.4820   33.7130  -13.5930 O   0  0  0  0  0  1  0  0  0  0  0  0
  -14.2890   34.7830  -13.8500 O   0  0  0  0  0  1  0  0  0  0  0  0
  1  2  1  0
  1  9  1  0
  1 32  1  0
  2  3  1  0
  2 33  1  0
  3 23  1  0
  3 34  1  0
  4  7  1  0
  4 23  1  0
  4 24  1  0
  5 24  1  0
  5 25  1  0
  6  7  1  0
  6 25  1  0
  6 26  1  0
  7 27  1  0
  8 23  1  0
  8 27  1  0
  9 10  1  0
  9 34  1  0
 10 28  1  0
 11 12  1  0
 11 28  1  0
 12 13  1  0
 13 14  1  0
 13 29  1  0
 14 35  1  0
 14 36  1  0
 15 16  1  0
 15 28  1  0
 16 17  1  0
 17 30  1  0
 18 19  1  0
 18 30  1  0
 18 31  1  0
 19 20  1  0
 20 21  1  0
 21 22  1  0
 22 31  1  0
M  END
$$$$
