6s7a_B_KY5_501
     RDKit          3D

 33 36  0  0  0  0  0  0  0  0999 V2000
   11.9020   12.8230  -27.8770 C   0  0  0  0  0  3  0  0  0  0  0  0
   11.3870   12.1180  -26.7210 C   0  0  0  0  0  3  0  0  0  0  0  0
   12.4880   11.1510  -26.4800 C   0  0  0  0  0  3  0  0  0  0  0  0
   12.8930    9.4400  -24.6820 C   0  0  0  0  0  3  0  0  0  0  0  0
   13.0410    7.1220  -24.6880 C   0  0  0  0  0  2  0  0  0  0  0  0
   13.3530    8.2690  -22.6430 C   0  0  0  0  0  3  0  0  0  0  0  0
   13.1580    9.4980  -23.3320 C   0  0  0  0  0  3  0  0  0  0  0  0
   12.9060   11.5560  -24.0620 C   0  0  0  0  0  2  0  0  0  0  0  0
   13.1550   12.6100  -28.0110 C   0  0  0  0  0  3  0  0  0  0  0  0
   14.0860   13.7080  -27.8600 C   0  0  0  0  0  2  0  0  0  0  0  0
   14.8710   16.0120  -28.5410 C   0  0  0  0  0  2  0  0  0  0  0  0
   14.1200   16.7980  -27.4620 C   0  0  0  0  0  2  0  0  0  0  0  0
   14.5830   18.2800  -27.4610 C   0  0  0  0  0  2  0  0  0  0  0  0
   14.4500   14.3840  -30.3480 C   0  0  0  0  0  2  0  0  0  0  0  0
   15.9980   14.0770  -30.4840 C   0  0  0  0  0  2  0  0  0  0  0  0
   16.2900   13.3290  -31.8270 C   0  0  0  0  0  2  0  0  0  0  0  0
   16.4740   15.2700  -33.2920 C   0  0  0  0  0  3  0  0  0  0  0  0
   17.9090   15.5790  -32.8320 C   0  0  0  0  0  2  0  0  0  0  0  0
   18.6460   16.7520  -33.3920 C   0  0  0  0  0  2  0  0  0  0  0  0
   17.9750   17.6190  -34.4180 C   0  0  0  0  0  2  0  0  0  0  0  0
   16.5540   17.3020  -34.8490 C   0  0  0  0  0  2  0  0  0  0  0  0
   12.7260   10.7430  -25.1280 N   0  0  0  0  0  0  0  0  0  0  0  0
   12.8280    8.2550  -25.3600 N   0  0  0  0  0  2  0  0  0  0  0  0
   13.2980    7.1230  -23.3620 N   0  0  0  0  0  2  0  0  0  0  0  0
   13.5740    8.2280  -21.2100 N   0  0  0  0  0  1  0  0  0  0  0  0
   13.1200   10.8180  -22.9420 N   0  0  0  0  0  2  0  0  0  0  0  0
   14.0740   14.8050  -28.9240 N   0  0  0  0  0  0  0  0  0  0  0  0
   15.8550   18.3090  -26.7710 N   0  0  0  0  0  1  0  0  0  0  0  0
   15.7870   14.2740  -32.8660 N   0  0  0  0  0  2  0  0  0  0  0  0
   15.8170   16.1430  -34.3170 N   0  0  0  0  0  2  0  0  0  0  0  0
   11.2550   12.3480  -29.1190 O   0  0  0  0  0  1  0  0  0  0  0  0
   10.1960   11.5350  -26.8520 O   0  0  0  0  0  1  0  0  0  0  0  0
   13.5430   11.7250  -26.8770 O   0  0  0  0  0  0  0  0  0  0  0  0
  1  2  1  0
  1  9  1  0
  1 31  1  0
  2  3  1  0
  2 32  1  0
  3 22  1  0
  3 33  1  0
  4  7  1  0
  4 22  1  0
  4 23  1  0
  5 23  1  0
  5 24  1  0
  6  7  1  0
  6 24  1  0
  6 25  1  0
  7 26  1  0
  8 22  1  0
  8 26  1  0
  9 10  1  0
  9 33  1  0
 10 27  1  0
 11 12  1  0
 11 27  1  0
 12 13  1  0
 13 28  1  0
 14 15  1  0
 14 27  1  0
 15 16  1  0
 16 29  1  0
 17 18  1  0
 17 29  1  0
 17 30  1  0
 18 19  1  0
 19 20  1  0
 20 21  1  0
 21 30  1  0
M  END
$$$$
