7fai_A_XJ3_501
     RDKit          3D

 33 36  0  0  0  0  0  0  0  0999 V2000
   15.5490   16.9760  283.3400 C   0  0  0  0  0  1  0  0  0  0  0  0
    9.9400   23.6080  283.6510 C   0  0  0  0  0  3  0  0  0  0  0  0
    7.6540   23.9090  283.6850 C   0  0  0  0  0  3  0  0  0  0  0  0
    6.6020   25.4480  281.9760 C   0  0  0  0  0  3  0  0  0  0  0  0
    6.8820   26.7580  282.5490 C   0  0  0  0  0  2  0  0  0  0  0  0
    6.6670   27.9290  281.5830 C   0  0  0  0  0  2  0  0  0  0  0  0
    5.1790   26.5770  280.2340 C   0  0  0  0  0  2  0  0  0  0  0  0
    5.3370   25.4150  281.2180 C   0  0  0  0  0  2  0  0  0  0  0  0
    7.5630   23.0680  284.8120 C   0  0  0  0  0  3  0  0  0  0  0  0
    6.2110   22.7660  285.4330 C   0  0  0  0  0  1  0  0  0  0  0  0
    8.7660   22.5170  285.3290 C   0  0  0  0  0  3  0  0  0  0  0  0
    8.8110   21.5750  286.5830 C   0  0  0  0  0  3  0  0  0  0  0  0
    8.4700   21.8920  287.8790 C   0  0  0  0  0  3  0  0  0  0  0  0
    7.9270   23.2130  288.4440 C   0  0  0  0  0  1  0  0  0  0  0  0
    9.2550   20.2370  286.5430 C   0  0  0  0  0  3  0  0  0  0  0  0
    9.7370   19.4630  285.3110 C   0  0  0  0  0  1  0  0  0  0  0  0
   14.7680   18.8340  281.9840 C   0  0  0  0  0  2  0  0  0  0  0  0
   11.6660   25.1480  282.5130 C   0  0  0  0  0  2  0  0  0  0  0  0
   12.9430   25.3650  281.9920 C   0  0  0  0  0  2  0  0  0  0  0  0
   13.8720   24.3270  281.9980 C   0  0  0  0  0  2  0  0  0  0  0  0
   15.3230   20.0410  281.1780 C   0  0  0  0  0  2  0  0  0  0  0  0
   14.5670   21.9070  282.5300 C   0  0  0  0  0  2  0  0  0  0  0  0
   13.5300   23.0840  282.5340 C   0  0  0  0  0  3  0  0  0  0  0  0
   12.2540   22.8630  283.0500 C   0  0  0  0  0  2  0  0  0  0  0  0
   11.3290   23.8960  283.0340 C   0  0  0  0  0  3  0  0  0  0  0  0
   14.3530   21.1570  281.2690 N   0  0  0  0  0  2  0  0  0  0  0  0
    8.8470   24.1480  283.1200 N   0  0  0  0  0  2  0  0  0  0  0  0
    6.4420   24.5060  283.0830 N   0  0  0  0  0  2  0  0  0  0  0  0
   15.8500   17.8440  282.1870 N   0  0  0  0  0  2  0  0  0  0  0  0
    9.1540   19.7650  287.7890 N   0  0  0  0  0  2  0  0  0  0  0  0
    9.9140   22.8230  284.7320 N   0  0  0  0  0  2  0  0  0  0  0  0
    5.3810   27.8710  280.8790 O   0  0  0  0  0  0  0  0  0  0  0  0
    8.6780   20.7980  288.5730 O   0  0  0  0  0  0  0  0  0  0  0  0
  1 29  1  0
  2 25  1  0
  2 27  1  0
  2 31  1  0
  3  9  1  0
  3 27  1  0
  3 28  1  0
  4  5  1  0
  4  8  1  0
  4 28  1  0
  5  6  1  0
  6 32  1  0
  7  8  1  0
  7 32  1  0
  9 10  1  0
  9 11  1  0
 11 12  1  0
 11 31  1  0
 12 13  1  0
 12 15  1  0
 13 14  1  0
 13 33  1  0
 15 16  1  0
 15 30  1  0
 17 21  1  0
 17 29  1  0
 18 19  1  0
 18 25  1  0
 19 20  1  0
 20 23  1  0
 21 26  1  0
 22 23  1  0
 22 26  1  0
 23 24  1  0
 24 25  1  0
 30 33  1  0
M  END
$$$$
