7fai_C_XJ3_501
     RDKit          3D

 33 36  0  0  0  0  0  0  0  0999 V2000
   15.6680   29.1430  224.7820 C   0  0  0  0  0  1  0  0  0  0  0  0
    8.5070   28.9080  229.8340 C   0  0  0  0  0  3  0  0  0  0  0  0
    6.3000   28.2480  229.6510 C   0  0  0  0  0  3  0  0  0  0  0  0
    4.3730   29.8640  230.0890 C   0  0  0  0  0  3  0  0  0  0  0  0
    2.9300   29.8920  229.8390 C   0  0  0  0  0  2  0  0  0  0  0  0
    2.2590   31.1330  230.4310 C   0  0  0  0  0  2  0  0  0  0  0  0
    4.0820   31.4150  231.9980 C   0  0  0  0  0  2  0  0  0  0  0  0
    4.7200   30.1130  231.4990 C   0  0  0  0  0  2  0  0  0  0  0  0
    6.7420   26.9570  229.2930 C   0  0  0  0  0  3  0  0  0  0  0  0
    5.7050   25.8850  228.9830 C   0  0  0  0  0  1  0  0  0  0  0  0
    8.1410   26.7020  229.2300 C   0  0  0  0  0  3  0  0  0  0  0  0
    8.7310   25.2870  228.8410 C   0  0  0  0  0  3  0  0  0  0  0  0
    8.5760   24.1060  229.5430 C   0  0  0  0  0  3  0  0  0  0  0  0
    7.7840   23.8810  230.8440 C   0  0  0  0  0  1  0  0  0  0  0  0
    9.5330   25.0240  227.7120 C   0  0  0  0  0  3  0  0  0  0  0  0
    9.9800   26.0380  226.6460 C   0  0  0  0  0  1  0  0  0  0  0  0
   14.1020   30.7190  225.7520 C   0  0  0  0  0  2  0  0  0  0  0  0
    9.4000   30.8710  231.2230 C   0  0  0  0  0  2  0  0  0  0  0  0
   10.3960   31.8130  231.4950 C   0  0  0  0  0  2  0  0  0  0  0  0
   11.5480   31.8470  230.6900 C   0  0  0  0  0  2  0  0  0  0  0  0
   14.0220   31.8900  226.7660 C   0  0  0  0  0  2  0  0  0  0  0  0
   12.9850   30.9630  228.7320 C   0  0  0  0  0  2  0  0  0  0  0  0
   11.6980   30.9440  229.6230 C   0  0  0  0  0  3  0  0  0  0  0  0
   10.7070   30.0060  229.3530 C   0  0  0  0  0  2  0  0  0  0  0  0
    9.5690   29.9840  230.1510 C   0  0  0  0  0  3  0  0  0  0  0  0
   12.7600   31.7880  227.5290 N   0  0  0  0  0  2  0  0  0  0  0  0
    7.2030   29.2010  229.9100 N   0  0  0  0  0  2  0  0  0  0  0  0
    4.8390   28.5320  229.7220 N   0  0  0  0  0  2  0  0  0  0  0  0
   15.5000   30.5150  225.3040 N   0  0  0  0  0  2  0  0  0  0  0  0
    9.8300   23.7120  227.7400 N   0  0  0  0  0  2  0  0  0  0  0  0
    8.9830   27.7060  229.5050 N   0  0  0  0  0  2  0  0  0  0  0  0
    2.6340   31.3610  231.8350 O   0  0  0  0  0  0  0  0  0  0  0  0
    9.2350   23.1820  228.8590 O   0  0  0  0  0  0  0  0  0  0  0  0
  1 29  1  0
  2 25  1  0
  2 27  1  0
  2 31  1  0
  3  9  1  0
  3 27  1  0
  3 28  1  0
  4  5  1  0
  4  8  1  0
  4 28  1  0
  5  6  1  0
  6 32  1  0
  7  8  1  0
  7 32  1  0
  9 10  1  0
  9 11  1  0
 11 12  1  0
 11 31  1  0
 12 13  1  0
 12 15  1  0
 13 14  1  0
 13 33  1  0
 15 16  1  0
 15 30  1  0
 17 21  1  0
 17 29  1  0
 18 19  1  0
 18 25  1  0
 19 20  1  0
 20 23  1  0
 21 26  1  0
 22 23  1  0
 22 26  1  0
 23 24  1  0
 24 25  1  0
 30 33  1  0
M  END
$$$$
