7faj_A_XJ4_501
     RDKit          3D

 33 36  0  0  0  0  0  0  0  0999 V2000
   15.7110   17.4960  284.8460 C   0  0  0  0  0  1  0  0  0  0  0  0
    9.9640   24.2150  285.5040 C   0  0  0  0  0  3  0  0  0  0  0  0
    7.6990   24.5190  285.5220 C   0  0  0  0  0  3  0  0  0  0  0  0
    6.4150   26.2590  284.1380 C   0  0  0  0  0  3  0  0  0  0  0  0
    7.4190   27.2190  284.1600 C   0  0  0  0  0  2  0  0  0  0  0  0
    7.3380   28.3200  283.3180 C   0  0  0  0  0  2  0  0  0  0  0  0
    6.2420   28.4600  282.4670 C   0  0  0  0  0  2  0  0  0  0  0  0
    5.2330   27.5070  282.4580 C   0  0  0  0  0  2  0  0  0  0  0  0
    5.3170   26.4070  283.2970 C   0  0  0  0  0  2  0  0  0  0  0  0
    7.6180   23.6600  286.6000 C   0  0  0  0  0  3  0  0  0  0  0  0
    6.2370   23.3810  287.1820 C   0  0  0  0  0  1  0  0  0  0  0  0
    8.7830   23.0880  287.1110 C   0  0  0  0  0  3  0  0  0  0  0  0
    8.8450   22.1280  288.3050 C   0  0  0  0  0  3  0  0  0  0  0  0
    8.5710   22.4270  289.6230 C   0  0  0  0  0  3  0  0  0  0  0  0
    8.0910   23.7650  290.1690 C   0  0  0  0  0  1  0  0  0  0  0  0
    9.2460   20.7860  288.2500 C   0  0  0  0  0  3  0  0  0  0  0  0
    9.6520   20.0230  286.9960 C   0  0  0  0  0  1  0  0  0  0  0  0
   14.9010   19.4950  283.8140 C   0  0  0  0  0  2  0  0  0  0  0  0
   11.7060   25.7440  284.4550 C   0  0  0  0  0  2  0  0  0  0  0  0
   12.9810   25.9310  283.9420 C   0  0  0  0  0  2  0  0  0  0  0  0
   13.8770   24.8650  283.8920 C   0  0  0  0  0  2  0  0  0  0  0  0
   15.3210   20.6740  282.9380 C   0  0  0  0  0  2  0  0  0  0  0  0
   14.4760   22.4260  284.2940 C   0  0  0  0  0  2  0  0  0  0  0  0
   13.5060   23.6100  284.3560 C   0  0  0  0  0  3  0  0  0  0  0  0
   12.2300   23.4230  284.8660 C   0  0  0  0  0  2  0  0  0  0  0  0
   11.3460   24.4850  284.9120 C   0  0  0  0  0  3  0  0  0  0  0  0
    8.8870   24.7700  284.9990 N   0  0  0  0  0  2  0  0  0  0  0  0
    6.4690   25.0970  285.0070 N   0  0  0  0  0  2  0  0  0  0  0  0
   15.9320   18.4640  283.7800 N   0  0  0  0  0  2  0  0  0  0  0  0
    9.1810   20.3060  289.5040 N   0  0  0  0  0  2  0  0  0  0  0  0
    9.9260   23.3920  286.5250 N   0  0  0  0  0  2  0  0  0  0  0  0
   14.3490   21.7510  283.0100 N   0  0  0  0  0  2  0  0  0  0  0  0
    8.7720   21.3280  290.3220 O   0  0  0  0  0  0  0  0  0  0  0  0
  1 29  1  0
  2 26  1  0
  2 27  1  0
  2 31  1  0
  3 10  1  0
  3 27  1  0
  3 28  1  0
  4  5  1  0
  4  9  1  0
  4 28  1  0
  5  6  1  0
  6  7  1  0
  7  8  1  0
  8  9  1  0
 10 11  1  0
 10 12  1  0
 12 13  1  0
 12 31  1  0
 13 14  1  0
 13 16  1  0
 14 15  1  0
 14 33  1  0
 16 17  1  0
 16 30  1  0
 18 22  1  0
 18 29  1  0
 19 20  1  0
 19 26  1  0
 20 21  1  0
 21 24  1  0
 22 32  1  0
 23 24  1  0
 23 32  1  0
 24 25  1  0
 25 26  1  0
 30 33  1  0
M  END
$$$$
