7okp_F_QVR_101
     RDKit          3D

 34 36  0  0  0  0  0  0  0  0999 V2000
   23.9640   20.9270  122.5060 C   0  0  0  0  0  3  0  0  0  0  0  0
   24.0960   20.7960  121.0150 C   0  0  0  0  0  3  0  0  0  0  0  0
   24.3420   21.8090  120.2080 C   0  0  0  0  0  3  0  0  0  0  0  0
   24.4510   21.5680  118.7400 C   0  0  0  0  0  0  0  0  0  0  0  0
   24.4890   23.3990  117.2800 C   0  0  0  0  0  0  0  0  0  0  0  0
   25.9000   23.2130  117.8340 C   0  0  0  0  0  0  0  0  0  0  0  0
   25.8680   21.7270  118.1880 C   0  0  0  0  0  0  0  0  0  0  0  0
   23.9820   25.5640  118.4990 C   0  0  0  0  0  3  0  0  0  0  0  0
   23.0790   26.7330  116.9760 C   0  0  0  0  0  3  0  0  0  0  0  0
   23.3830   25.5100  116.3960 C   0  0  0  0  0  3  0  0  0  0  0  0
   22.5500   26.1240  114.4510 C   0  0  0  0  0  3  0  0  0  0  0  0
   22.4510   27.6880  116.1530 C   0  0  0  0  0  3  0  0  0  0  0  0
   24.8760   21.4180  122.8440 H   0  0  0  0  0  0  0  0  0  0  0  0
   23.9740   19.7900  120.6160 H   0  0  0  0  0  0  0  0  0  0  0  0
   23.1510   21.6320  122.6730 H   0  0  0  0  0  0  0  0  0  0  0  0
   24.4720   22.8310  120.5610 H   0  0  0  0  0  0  0  0  0  0  0  0
   26.6540   21.4230  118.8790 H   0  0  0  0  0  0  0  0  0  0  0  0
   26.0720   23.8120  118.7280 H   0  0  0  0  0  0  0  0  0  0  0  0
   25.2250   20.7570  116.5860 H   0  0  0  0  0  0  0  0  0  0  0  0
   26.5140   24.2480  116.3070 H   0  0  0  0  0  0  0  0  0  0  0  0
   22.3150   25.9130  113.4080 H   0  0  0  0  0  0  0  0  0  0  0  0
   24.3940   25.2250  119.4480 H   0  0  0  0  0  0  0  0  0  0  0  0
   22.2640   29.2340  117.5140 H   0  0  0  0  0  0  0  0  0  0  0  0
   21.6480   29.5840  115.9580 H   0  0  0  0  0  0  0  0  0  0  0  0
   24.0230   20.5960  118.4970 H   0  0  0  0  0  0  0  0  0  0  0  0
   24.4030   23.1060  116.2340 H   0  0  0  0  0  0  0  0  0  0  0  0
   23.9680   24.7610  117.3890 N   0  0  0  0  0  0  0  0  0  0  0  0
   23.4620   26.7530  118.3080 N   0  0  0  0  0  2  0  0  0  0  0  0
   23.1460   25.1400  115.1300 N   0  0  0  0  0  2  0  0  0  0  0  0
   22.1980   27.3430  114.8720 N   0  0  0  0  0  2  0  0  0  0  0  0
   22.1000   28.9090  116.5670 N   0  0  0  0  0  0  0  0  0  0  0  0
   23.6550   22.5320  118.0250 O   0  0  0  0  0  0  0  0  0  0  0  0
   26.8910   23.5090  116.8530 O   0  0  0  0  0  0  0  0  0  0  0  0
   26.0900   20.8980  117.0530 O   0  0  0  0  0  0  0  0  0  0  0  0
  1  2  1  0
  1 13  1  0
  1 15  1  0
  2  3  1  0
  2 14  1  0
  3  4  1  0
  3 16  1  0
  4  7  1  0
  4 25  1  0
  4 32  1  0
  5  6  1  0
  5 26  1  0
  5 27  1  0
  5 32  1  0
  6  7  1  0
  6 18  1  0
  6 33  1  0
  7 17  1  0
  7 34  1  0
  8 22  1  0
  8 27  1  0
  8 28  1  0
  9 10  1  0
  9 12  1  0
  9 28  1  0
 10 27  1  0
 10 29  1  0
 11 21  1  0
 11 29  1  0
 11 30  1  0
 12 30  1  0
 12 31  1  0
 19 34  1  0
 20 33  1  0
 23 31  1  0
 24 31  1  0
M  END
$$$$
