7okp_G_QVR_101
     RDKit          3D

 34 36  0  0  0  0  0  0  0  0999 V2000
   24.9170   33.3810  181.6050 C   0  0  0  0  0  3  0  0  0  0  0  0
   25.3780   34.6040  180.8640 C   0  0  0  0  0  3  0  0  0  0  0  0
   26.2360   35.4850  181.3460 C   0  0  0  0  0  3  0  0  0  0  0  0
   26.6410   36.6680  180.5300 C   0  0  0  0  0  0  0  0  0  0  0  0
   27.5740   38.4970  181.6470 C   0  0  0  0  0  0  0  0  0  0  0  0
   28.6580   37.4310  181.4620 C   0  0  0  0  0  0  0  0  0  0  0  0
   28.1350   36.7260  180.2210 C   0  0  0  0  0  0  0  0  0  0  0  0
   27.4450   38.2780  184.1810 C   0  0  0  0  0  3  0  0  0  0  0  0
   27.1280   40.2880  184.7840 C   0  0  0  0  0  3  0  0  0  0  0  0
   27.2040   40.3080  183.4010 C   0  0  0  0  0  3  0  0  0  0  0  0
   26.8820   42.4870  183.3260 C   0  0  0  0  0  3  0  0  0  0  0  0
   26.9150   41.5220  185.4290 C   0  0  0  0  0  3  0  0  0  0  0  0
   25.8190   32.9170  182.0010 H   0  0  0  0  0  0  0  0  0  0  0  0
   24.9560   34.7370  179.8690 H   0  0  0  0  0  0  0  0  0  0  0  0
   24.3540   33.7490  182.4610 H   0  0  0  0  0  0  0  0  0  0  0  0
   26.6780   35.3930  182.3370 H   0  0  0  0  0  0  0  0  0  0  0  0
   28.6030   35.7650  180.0150 H   0  0  0  0  0  0  0  0  0  0  0  0
   28.7170   36.7230  182.2880 H   0  0  0  0  0  0  0  0  0  0  0  0
   27.5350   37.9960  178.8290 H   0  0  0  0  0  0  0  0  0  0  0  0
   29.7180   38.9480  180.8820 H   0  0  0  0  0  0  0  0  0  0  0  0
   26.7720   43.4120  182.7620 H   0  0  0  0  0  0  0  0  0  0  0  0
   27.5950   37.2000  184.1820 H   0  0  0  0  0  0  0  0  0  0  0  0
   26.9460   40.8850  187.3990 H   0  0  0  0  0  0  0  0  0  0  0  0
   26.6920   42.5650  187.2040 H   0  0  0  0  0  0  0  0  0  0  0  0
   26.0250   36.7070  179.6330 H   0  0  0  0  0  0  0  0  0  0  0  0
   27.7360   39.3710  181.0180 H   0  0  0  0  0  0  0  0  0  0  0  0
   27.4130   39.0020  183.0170 N   0  0  0  0  0  0  0  0  0  0  0  0
   27.2820   38.9980  185.2660 N   0  0  0  0  0  2  0  0  0  0  0  0
   27.0900   41.3810  182.6090 N   0  0  0  0  0  2  0  0  0  0  0  0
   26.7900   42.6210  184.6530 N   0  0  0  0  0  2  0  0  0  0  0  0
   26.8470   41.6660  186.7580 N   0  0  0  0  0  0  0  0  0  0  0  0
   26.3590   37.8960  181.2330 O   0  0  0  0  0  0  0  0  0  0  0  0
   29.9190   38.0490  181.2510 O   0  0  0  0  0  0  0  0  0  0  0  0
   28.3680   37.5060  179.0570 O   0  0  0  0  0  0  0  0  0  0  0  0
  1  2  1  0
  1 13  1  0
  1 15  1  0
  2  3  1  0
  2 14  1  0
  3  4  1  0
  3 16  1  0
  4  7  1  0
  4 25  1  0
  4 32  1  0
  5  6  1  0
  5 26  1  0
  5 27  1  0
  5 32  1  0
  6  7  1  0
  6 18  1  0
  6 33  1  0
  7 17  1  0
  7 34  1  0
  8 22  1  0
  8 27  1  0
  8 28  1  0
  9 10  1  0
  9 12  1  0
  9 28  1  0
 10 27  1  0
 10 29  1  0
 11 21  1  0
 11 29  1  0
 11 30  1  0
 12 30  1  0
 12 31  1  0
 19 34  1  0
 20 33  1  0
 23 31  1  0
 24 31  1  0
M  END
$$$$
