7os4_H_QVR_101
     RDKit          3D

 20 22  0  0  0  0  0  0  0  0999 V2000
   52.2030   19.8500  188.4740 C   0  0  0  0  0  1  0  0  0  0  0  0
   52.0850   19.6680  189.9590 C   0  0  0  0  0  2  0  0  0  0  0  0
   51.7040   20.6120  190.7970 C   0  0  0  0  0  2  0  0  0  0  0  0
   51.6170   20.3590  192.2650 C   0  0  0  0  0  3  0  0  0  0  0  0
   51.7430   22.1740  193.7410 C   0  0  0  0  0  3  0  0  0  0  0  0
   50.3140   22.0980  193.2160 C   0  0  0  0  0  3  0  0  0  0  0  0
   50.2280   20.6150  192.8580 C   0  0  0  0  0  3  0  0  0  0  0  0
   52.2950   24.3300  192.5380 C   0  0  0  0  0  2  0  0  0  0  0  0
   53.4060   25.3800  193.9980 C   0  0  0  0  0  3  0  0  0  0  0  0
   53.0720   24.1690  194.5840 C   0  0  0  0  0  3  0  0  0  0  0  0
   54.0860   24.6690  196.4660 C   0  0  0  0  0  2  0  0  0  0  0  0
   54.1620   26.2720  194.8010 C   0  0  0  0  0  3  0  0  0  0  0  0
   52.3460   23.5010  193.6170 N   0  0  0  0  0  0  0  0  0  0  0  0
   52.9190   25.4780  192.7140 N   0  0  0  0  0  2  0  0  0  0  0  0
   53.3770   23.7470  195.8080 N   0  0  0  0  0  2  0  0  0  0  0  0
   54.4860   25.8740  196.0490 N   0  0  0  0  0  2  0  0  0  0  0  0
   54.5630   27.4770  194.3900 N   0  0  0  0  0  1  0  0  0  0  0  0
   52.4970   21.2650  192.9590 O   0  0  0  0  0  0  0  0  0  0  0  0
   49.3750   22.4880  194.2120 O   0  0  0  0  0  1  0  0  0  0  0  0
   49.9740   19.8040  193.9980 O   0  0  0  0  0  1  0  0  0  0  0  0
  1  2  1  0
  2  3  1  0
  3  4  1  0
  4  7  1  0
  4 18  1  0
  5  6  1  0
  5 13  1  0
  5 18  1  0
  6  7  1  0
  6 19  1  0
  7 20  1  0
  8 13  1  0
  8 14  1  0
  9 10  1  0
  9 12  1  0
  9 14  1  0
 10 13  1  0
 10 15  1  0
 11 15  1  0
 11 16  1  0
 12 16  1  0
 12 17  1  0
M  END
$$$$
