7ppy_C_7ZH_501
     RDKit          3D

 79 83  0  0  0  0  0  0  0  0999 V2000
   32.6320   25.2980  185.5340 C   0  0  0  0  0  3  0  0  0  0  0  0
   31.5800   26.5300  182.1760 C   0  0  0  0  0  3  0  0  0  0  0  0
   33.7460   24.5450  186.1700 C   0  0  0  0  0  3  0  0  0  0  0  0
   27.5480   27.9960  180.8140 C   0  0  0  0  0  3  0  0  0  0  0  0
   25.6340   28.7870  179.4540 C   0  0  0  0  0  0  0  0  0  0  0  0
   25.5640   29.9690  178.5070 C   0  0  0  0  0  0  0  0  0  0  0  0
   24.3320   30.8450  178.6600 C   0  0  0  0  0  0  0  0  0  0  0  0
   24.4960   31.9090  179.7170 C   0  0  0  0  0  0  0  0  0  0  0  0
   25.0590   34.2630  180.0000 C   0  0  0  0  0  3  0  0  0  0  0  0
   36.0970   24.3710  186.2820 C   0  0  0  0  0  0  0  0  0  0  0  0
   25.6410   36.6520  180.3230 C   0  0  0  0  0  0  0  0  0  0  0  0
   31.5710   25.7490  186.3190 C   0  0  0  0  0  3  0  0  0  0  0  0
   26.3270   37.8280  179.6550 C   0  0  0  0  0  0  0  0  0  0  0  0
   27.8500   37.7590  179.5280 C   0  0  0  0  0  0  0  0  0  0  0  0
   28.3280   38.4250  180.8190 C   0  0  0  0  0  0  0  0  0  0  0  0
   27.2600   39.5010  181.0000 C   0  0  0  0  0  0  0  0  0  0  0  0
   26.9230   39.1900  183.4940 C   0  0  0  0  0  3  0  0  0  0  0  0
   26.8050   41.1960  184.1740 C   0  0  0  0  0  3  0  0  0  0  0  0
   26.7020   42.4190  184.8640 C   0  0  0  0  0  3  0  0  0  0  0  0
   26.9830   43.4700  182.8210 C   0  0  0  0  0  3  0  0  0  0  0  0
   26.9980   41.2640  182.8040 C   0  0  0  0  0  3  0  0  0  0  0  0
   30.5340   26.4470  185.7520 C   0  0  0  0  0  3  0  0  0  0  0  0
   30.5120   26.7250  184.3620 C   0  0  0  0  0  3  0  0  0  0  0  0
   31.5940   26.2590  183.5630 C   0  0  0  0  0  3  0  0  0  0  0  0
   32.6430   25.5470  184.1830 C   0  0  0  0  0  3  0  0  0  0  0  0
   29.4610   27.4410  183.7340 C   0  0  0  0  0  3  0  0  0  0  0  0
   29.4770   27.6720  182.3770 C   0  0  0  0  0  3  0  0  0  0  0  0
   30.5510   27.2220  181.6110 C   0  0  0  0  0  3  0  0  0  0  0  0
   31.5870   25.5380  187.3870 H   0  0  0  0  0  0  0  0  0  0  0  0
   24.6650   28.6250  179.9240 H   0  0  0  0  0  0  0  0  0  0  0  0
   26.4580   30.5740  178.6550 H   0  0  0  0  0  0  0  0  0  0  0  0
   25.6470   29.6350  177.4740 H   0  0  0  0  0  0  0  0  0  0  0  0
   23.4690   30.2170  178.8760 H   0  0  0  0  0  0  0  0  0  0  0  0
   24.0860   31.3010  177.7020 H   0  0  0  0  0  0  0  0  0  0  0  0
   23.5680   32.0430  180.2710 H   0  0  0  0  0  0  0  0  0  0  0  0
   25.2080   31.5820  180.4730 H   0  0  0  0  0  0  0  0  0  0  0  0
   25.2410   33.2170  178.2160 H   0  0  0  0  0  0  0  0  0  0  0  0
   25.3410   35.6230  178.5160 H   0  0  0  0  0  0  0  0  0  0  0  0
   24.3860   33.3550  181.6540 H   0  0  0  0  0  0  0  0  0  0  0  0
   33.4620   25.1990  183.5550 H   0  0  0  0  0  0  0  0  0  0  0  0
   36.0690   24.7510  187.3020 H   0  0  0  0  0  0  0  0  0  0  0  0
   36.0740   23.2820  186.2870 H   0  0  0  0  0  0  0  0  0  0  0  0
   37.0000   24.7260  185.7870 H   0  0  0  0  0  0  0  0  0  0  0  0
   24.6350   36.9360  180.6190 H   0  0  0  0  0  0  0  0  0  0  0  0
   26.1560   36.4490  181.2610 H   0  0  0  0  0  0  0  0  0  0  0  0
   25.8640   38.0810  178.7030 H   0  0  0  0  0  0  0  0  0  0  0  0
   28.2030   36.7340  179.4820 H   0  0  0  0  0  0  0  0  0  0  0  0
   28.7640   37.8230  177.8010 H   0  0  0  0  0  0  0  0  0  0  0  0
   28.3480   37.7120  181.6420 H   0  0  0  0  0  0  0  0  0  0  0  0
   30.2400   38.4630  181.1670 H   0  0  0  0  0  0  0  0  0  0  0  0
   28.6370   27.7910  184.3540 H   0  0  0  0  0  0  0  0  0  0  0  0
   27.4300   40.3750  180.3740 H   0  0  0  0  0  0  0  0  0  0  0  0
   26.9310   38.1050  183.4650 H   0  0  0  0  0  0  0  0  0  0  0  0
   26.4480   41.6750  186.7540 H   0  0  0  0  0  0  0  0  0  0  0  0
   26.4500   43.4140  186.6490 H   0  0  0  0  0  0  0  0  0  0  0  0
   27.0460   44.4250  182.3010 H   0  0  0  0  0  0  0  0  0  0  0  0
   30.5770   27.4090  180.5400 H   0  0  0  0  0  0  0  0  0  0  0  0
   32.4070   26.1770  181.5620 H   0  0  0  0  0  0  0  0  0  0  0  0
   29.6010   26.6600  187.4220 H   0  0  0  0  0  0  0  0  0  0  0  0
   28.4020   29.3680  182.1030 H   0  0  0  0  0  0  0  0  0  0  0  0
   26.7220   29.9000  180.8410 H   0  0  0  0  0  0  0  0  0  0  0  0
   25.8290   27.8750  178.8920 H   0  0  0  0  0  0  0  0  0  0  0  0
   28.4390   28.4110  181.7670 N   0  0  0  0  0  0  0  0  0  0  0  0
   27.0930   42.3740  182.0650 N   0  0  0  0  0  2  0  0  0  0  0  0
   26.6870   28.9680  180.4410 N   0  0  0  0  0  0  0  0  0  0  0  0
   24.9790   33.1810  179.1960 N   0  0  0  0  0  0  0  0  0  0  0  0
   25.5120   35.4520  179.5020 N   0  0  0  0  0  0  0  0  0  0  0  0
   24.7250   34.2230  181.2540 N   0  0  0  0  0  2  0  0  0  0  0  0
   27.0740   39.9620  182.3720 N   0  0  0  0  0  0  0  0  0  0  0  0
   26.7610   39.8760  184.5980 N   0  0  0  0  0  2  0  0  0  0  0  0
   26.5220   42.5130  186.1860 N   0  0  0  0  0  0  0  0  0  0  0  0
   26.7980   43.5590  184.1420 N   0  0  0  0  0  2  0  0  0  0  0  0
   29.4760   26.9080  186.4690 O   0  0  0  0  0  0  0  0  0  0  0  0
   27.5190   26.8560  180.3470 O   0  0  0  0  0  1  0  0  0  0  0  0
   34.9070   24.7310  185.5380 O   0  0  0  0  0  0  0  0  0  0  0  0
   33.6220   23.8450  187.1410 O   0  0  0  0  0  1  0  0  0  0  0  0
   28.2970   38.4800  178.3810 O   0  0  0  0  0  0  0  0  0  0  0  0
   29.6080   39.0280  180.6500 O   0  0  0  0  0  0  0  0  0  0  0  0
   26.0500   38.9240  180.5590 O   0  0  0  0  0  0  0  0  0  0  0  0
  1  3  1  0
  1 12  1  0
  1 25  1  0
  2 24  1  0
  2 28  1  0
  2 58  1  0
  3 75  1  0
  3 76  1  0
  4 63  1  0
  4 65  1  0
  4 74  1  0
  5  6  1  0
  5 30  1  0
  5 62  1  0
  5 65  1  0
  6  7  1  0
  6 31  1  0
  6 32  1  0
  7  8  1  0
  7 33  1  0
  7 34  1  0
  8 35  1  0
  8 36  1  0
  8 66  1  0
  9 66  1  0
  9 67  1  0
  9 68  1  0
 10 41  1  0
 10 42  1  0
 10 43  1  0
 10 75  1  0
 11 13  1  0
 11 44  1  0
 11 45  1  0
 11 67  1  0
 12 22  1  0
 12 29  1  0
 13 14  1  0
 13 46  1  0
 13 79  1  0
 14 15  1  0
 14 47  1  0
 14 77  1  0
 15 16  1  0
 15 49  1  0
 15 78  1  0
 16 52  1  0
 16 69  1  0
 16 79  1  0
 17 53  1  0
 17 69  1  0
 17 70  1  0
 18 19  1  0
 18 21  1  0
 18 70  1  0
 19 71  1  0
 19 72  1  0
 20 56  1  0
 20 64  1  0
 20 72  1  0
 21 64  1  0
 21 69  1  0
 22 23  1  0
 22 73  1  0
 23 24  1  0
 23 26  1  0
 24 25  1  0
 25 40  1  0
 26 27  1  0
 26 51  1  0
 27 28  1  0
 27 63  1  0
 28 57  1  0
 37 66  1  0
 38 67  1  0
 39 68  1  0
 48 77  1  0
 50 78  1  0
 54 71  1  0
 55 71  1  0
 59 73  1  0
 60 63  1  0
 61 65  1  0
M  END
$$$$
