7pu8_C_4R7_501
     RDKit          3D

 82 86  0  0  0  0  0  0  0  0999 V2000
   33.3490   25.9550  187.4410 C   0  0  0  0  0  3  0  0  0  0  0  0
   32.8730   26.2140  183.7410 C   0  0  0  0  0  3  0  0  0  0  0  0
   34.4170   25.8030  188.4660 C   0  0  0  0  0  3  0  0  0  0  0  0
   36.3790   24.5980  187.9180 C   0  0  0  0  0  0  0  0  0  0  0  0
   28.1830   27.0430  182.4180 C   0  0  0  0  0  3  0  0  0  0  0  0
   25.9960   27.3720  181.3140 C   0  0  0  0  0  0  0  0  0  0  0  0
   25.8440   28.8860  181.0960 C   0  0  0  0  0  0  0  0  0  0  0  0
   24.3710   29.3550  181.2580 C   0  0  0  0  0  0  0  0  0  0  0  0
   24.4290   33.1420  181.5270 C   0  0  0  0  0  3  0  0  0  0  0  0
   26.2250   35.5230  182.1030 C   0  0  0  0  0  0  0  0  0  0  0  0
   26.4170   36.8320  181.3430 C   0  0  0  0  0  0  0  0  0  0  0  0
   32.0300   26.0380  187.8790 C   0  0  0  0  0  3  0  0  0  0  0  0
   27.8580   37.1330  180.9260 C   0  0  0  0  0  0  0  0  0  0  0  0
   28.3720   37.8900  182.1560 C   0  0  0  0  0  0  0  0  0  0  0  0
   27.1570   38.8030  182.3450 C   0  0  0  0  0  0  0  0  0  0  0  0
   27.0210   38.8750  184.8710 C   0  0  0  0  0  3  0  0  0  0  0  0
   26.8950   40.9550  185.2420 C   0  0  0  0  0  3  0  0  0  0  0  0
   26.8000   42.2640  185.7410 C   0  0  0  0  0  3  0  0  0  0  0  0
   26.8940   42.9810  183.5450 C   0  0  0  0  0  3  0  0  0  0  0  0
   26.9840   40.8130  183.8710 C   0  0  0  0  0  3  0  0  0  0  0  0
   24.0830   30.7960  180.8050 C   0  0  0  0  0  0  0  0  0  0  0  0
   24.8420   35.3000  182.7210 C   0  0  0  0  0  0  0  0  0  0  0  0
   31.0080   26.1800  186.9800 C   0  0  0  0  0  3  0  0  0  0  0  0
   31.2660   26.2520  185.5760 C   0  0  0  0  0  3  0  0  0  0  0  0
   32.6120   26.1560  185.1330 C   0  0  0  0  0  3  0  0  0  0  0  0
   33.6380   26.0120  186.0970 C   0  0  0  0  0  3  0  0  0  0  0  0
   30.2470   26.3880  184.6040 C   0  0  0  0  0  3  0  0  0  0  0  0
   30.5270   26.4770  183.2580 C   0  0  0  0  0  3  0  0  0  0  0  0
   31.8550   26.3560  182.8400 C   0  0  0  0  0  3  0  0  0  0  0  0
   31.8110   25.9970  188.9450 H   0  0  0  0  0  0  0  0  0  0  0  0
   24.0720   29.2300  182.2980 H   0  0  0  0  0  0  0  0  0  0  0  0
   26.9850   35.5010  182.8820 H   0  0  0  0  0  0  0  0  0  0  0  0
   26.4980   34.6790  181.4730 H   0  0  0  0  0  0  0  0  0  0  0  0
   28.4310   36.2260  180.7750 H   0  0  0  0  0  0  0  0  0  0  0  0
   27.0760   39.5670  181.5740 H   0  0  0  0  0  0  0  0  0  0  0  0
   26.8910   43.8440  182.8800 H   0  0  0  0  0  0  0  0  0  0  0  0
   24.8440   35.6740  183.7440 H   0  0  0  0  0  0  0  0  0  0  0  0
   24.1140   35.9380  182.2230 H   0  0  0  0  0  0  0  0  0  0  0  0
   25.4840   27.0890  182.2320 H   0  0  0  0  0  0  0  0  0  0  0  0
   25.4590   26.8400  180.5310 H   0  0  0  0  0  0  0  0  0  0  0  0
   34.6670   25.9480  185.7450 H   0  0  0  0  0  0  0  0  0  0  0  0
   25.7640   36.8740  180.4720 H   0  0  0  0  0  0  0  0  0  0  0  0
   28.4890   37.2010  182.9910 H   0  0  0  0  0  0  0  0  0  0  0  0
   27.0610   37.7970  185.0170 H   0  0  0  0  0  0  0  0  0  0  0  0
   23.0080   30.9670  180.8220 H   0  0  0  0  0  0  0  0  0  0  0  0
   24.3380   30.8990  179.7510 H   0  0  0  0  0  0  0  0  0  0  0  0
   29.2180   26.4510  184.9510 H   0  0  0  0  0  0  0  0  0  0  0  0
   32.1000   26.3980  181.7800 H   0  0  0  0  0  0  0  0  0  0  0  0
   29.7370   26.0880  181.4250 H   0  0  0  0  0  0  0  0  0  0  0  0
   27.6930   26.4520  180.4670 H   0  0  0  0  0  0  0  0  0  0  0  0
   25.4540   31.5060  182.2720 H   0  0  0  0  0  0  0  0  0  0  0  0
   33.9030   26.1520  183.3940 H   0  0  0  0  0  0  0  0  0  0  0  0
   23.6150   33.7090  183.2800 H   0  0  0  0  0  0  0  0  0  0  0  0
   24.1620   33.2710  179.5630 H   0  0  0  0  0  0  0  0  0  0  0  0
   26.6460   43.5240  187.3700 H   0  0  0  0  0  0  0  0  0  0  0  0
   26.7070   41.8240  187.7440 H   0  0  0  0  0  0  0  0  0  0  0  0
   29.5150   27.2340  187.4740 H   0  0  0  0  0  0  0  0  0  0  0  0
   27.4570   37.5490  179.0710 H   0  0  0  0  0  0  0  0  0  0  0  0
   30.0480   38.2450  181.2370 H   0  0  0  0  0  0  0  0  0  0  0  0
   36.8810   25.5430  188.1180 H   0  0  0  0  0  0  0  0  0  0  0  0
   36.4300   24.3800  186.8520 H   0  0  0  0  0  0  0  0  0  0  0  0
   36.8450   23.7950  188.4870 H   0  0  0  0  0  0  0  0  0  0  0  0
   26.2080   29.1340  180.1000 H   0  0  0  0  0  0  0  0  0  0  0  0
   26.4950   29.4460  181.7660 H   0  0  0  0  0  0  0  0  0  0  0  0
   23.7170   28.6700  180.7200 H   0  0  0  0  0  0  0  0  0  0  0  0
   29.4770   26.5530  182.2890 N   0  0  0  0  0  0  0  0  0  0  0  0
   26.9940   41.7910  182.9660 N   0  0  0  0  0  2  0  0  0  0  0  0
   27.3820   26.9000  181.3230 N   0  0  0  0  0  0  0  0  0  0  0  0
   24.7410   31.8140  181.6190 N   0  0  0  0  0  0  0  0  0  0  0  0
   24.3940   33.9070  182.6610 N   0  0  0  0  0  0  0  0  0  0  0  0
   24.1500   33.7920  180.4340 N   0  0  0  0  0  2  0  0  0  0  0  0
   27.0610   39.4650  183.6380 N   0  0  0  0  0  0  0  0  0  0  0  0
   26.9200   39.7180  185.8650 N   0  0  0  0  0  2  0  0  0  0  0  0
   26.7090   42.5630  187.0480 N   0  0  0  0  0  0  0  0  0  0  0  0
   26.8000   43.2690  184.8390 N   0  0  0  0  0  2  0  0  0  0  0  0
   29.7040   26.2650  187.3710 O   0  0  0  0  0  0  0  0  0  0  0  0
   35.0120   24.6110  188.4030 O   0  0  0  0  0  0  0  0  0  0  0  0
   34.6910   26.6420  189.2860 O   0  0  0  0  0  1  0  0  0  0  0  0
   27.7680   27.5920  183.4330 O   0  0  0  0  0  1  0  0  0  0  0  0
   27.9780   37.9830  179.7960 O   0  0  0  0  0  0  0  0  0  0  0  0
   29.5740   38.6460  182.0120 O   0  0  0  0  0  0  0  0  0  0  0  0
   26.0360   37.9490  182.1840 O   0  0  0  0  0  0  0  0  0  0  0  0
  1  3  1  0
  1 12  1  0
  1 26  1  0
  2 25  1  0
  2 29  1  0
  2 52  1  0
  3 77  1  0
  3 78  1  0
  4 60  1  0
  4 61  1  0
  4 62  1  0
  4 77  1  0
  5 66  1  0
  5 68  1  0
  5 79  1  0
  6  7  1  0
  6 39  1  0
  6 40  1  0
  6 68  1  0
  7  8  1  0
  7 63  1  0
  7 64  1  0
  8 21  1  0
  8 31  1  0
  8 65  1  0
  9 69  1  0
  9 70  1  0
  9 71  1  0
 10 11  1  0
 10 22  1  0
 10 32  1  0
 10 33  1  0
 11 13  1  0
 11 42  1  0
 11 82  1  0
 12 23  1  0
 12 30  1  0
 13 14  1  0
 13 34  1  0
 13 80  1  0
 14 15  1  0
 14 43  1  0
 14 81  1  0
 15 35  1  0
 15 72  1  0
 15 82  1  0
 16 44  1  0
 16 72  1  0
 16 73  1  0
 17 18  1  0
 17 20  1  0
 17 73  1  0
 18 74  1  0
 18 75  1  0
 19 36  1  0
 19 67  1  0
 19 75  1  0
 20 67  1  0
 20 72  1  0
 21 45  1  0
 21 46  1  0
 21 69  1  0
 22 37  1  0
 22 38  1  0
 22 70  1  0
 23 24  1  0
 23 76  1  0
 24 25  1  0
 24 27  1  0
 25 26  1  0
 26 41  1  0
 27 28  1  0
 27 47  1  0
 28 29  1  0
 28 66  1  0
 29 48  1  0
 49 66  1  0
 50 68  1  0
 51 69  1  0
 53 70  1  0
 54 71  1  0
 55 74  1  0
 56 74  1  0
 57 76  1  0
 58 80  1  0
 59 81  1  0
M  END
$$$$
