7puc_D_85U_501
     RDKit          3D

 83 87  0  0  0  0  0  0  0  0999 V2000
   42.0070   24.8310  182.7980 C   0  0  0  0  0  3  0  0  0  0  0  0
   42.4000   21.3120  184.0010 C   0  0  0  0  0  3  0  0  0  0  0  0
   40.9520   25.8080  182.4010 C   0  0  0  0  0  3  0  0  0  0  0  0
   39.0830   24.9380  181.2440 C   0  0  0  0  0  0  0  0  0  0  0  0
   47.0910   20.0170  184.5730 C   0  0  0  0  0  3  0  0  0  0  0  0
   49.1720   18.7880  184.1150 C   0  0  0  0  0  0  0  0  0  0  0  0
   49.9300   18.8340  185.4280 C   0  0  0  0  0  0  0  0  0  0  0  0
   50.1370   17.4570  186.0300 C   0  0  0  0  0  0  0  0  0  0  0  0
   52.1990   19.0150  188.6840 C   0  0  0  0  0  3  0  0  0  0  0  0
   52.4120   21.0840  192.2760 C   0  0  0  0  0  3  0  0  0  0  0  0
   52.2260   20.6640  193.6960 C   0  0  0  0  0  0  0  0  0  0  0  0
   43.3410   25.2370  182.7470 C   0  0  0  0  0  3  0  0  0  0  0  0
   50.8100   20.8640  194.2460 C   0  0  0  0  0  0  0  0  0  0  0  0
   50.8380   22.3590  194.5720 C   0  0  0  0  0  0  0  0  0  0  0  0
   52.2410   22.4840  195.1680 C   0  0  0  0  0  0  0  0  0  0  0  0
   52.8940   24.5900  193.9100 C   0  0  0  0  0  3  0  0  0  0  0  0
   53.9880   25.6550  195.3820 C   0  0  0  0  0  3  0  0  0  0  0  0
   54.7440   26.5460  196.1720 C   0  0  0  0  0  3  0  0  0  0  0  0
   54.5600   25.0030  197.8910 C   0  0  0  0  0  3  0  0  0  0  0  0
   53.5860   24.4720  195.9810 C   0  0  0  0  0  3  0  0  0  0  0  0
   51.1750   17.4070  187.1340 C   0  0  0  0  0  0  0  0  0  0  0  0
   53.2300   20.8890  189.9350 C   0  0  0  0  0  0  0  0  0  0  0  0
   44.3470   24.3700  183.0980 C   0  0  0  0  0  3  0  0  0  0  0  0
   53.0490   20.4080  191.3440 C   0  0  0  0  0  3  0  0  0  0  0  0
   44.0580   23.0440  183.5310 C   0  0  0  0  0  3  0  0  0  0  0  0
   42.6960   22.6320  183.5800 C   0  0  0  0  0  3  0  0  0  0  0  0
   41.6890   23.5540  183.2050 C   0  0  0  0  0  3  0  0  0  0  0  0
   45.0630   22.1150  183.9040 C   0  0  0  0  0  3  0  0  0  0  0  0
   44.7390   20.8370  184.3090 C   0  0  0  0  0  3  0  0  0  0  0  0
   43.3980   20.4490  184.3530 C   0  0  0  0  0  3  0  0  0  0  0  0
   43.5630   26.2520  182.4200 H   0  0  0  0  0  0  0  0  0  0  0  0
   38.5740   23.9780  181.3120 H   0  0  0  0  0  0  0  0  0  0  0  0
   47.2190   17.9880  184.1690 H   0  0  0  0  0  0  0  0  0  0  0  0
   49.4310   17.8890  183.5580 H   0  0  0  0  0  0  0  0  0  0  0  0
   49.4940   19.6040  183.4700 H   0  0  0  0  0  0  0  0  0  0  0  0
   50.8890   19.3320  185.2920 H   0  0  0  0  0  0  0  0  0  0  0  0
   49.4010   19.4540  186.1500 H   0  0  0  0  0  0  0  0  0  0  0  0
   49.1900   17.0680  186.4000 H   0  0  0  0  0  0  0  0  0  0  0  0
   50.4090   16.7790  185.2230 H   0  0  0  0  0  0  0  0  0  0  0  0
   50.2160   18.8030  188.3690 H   0  0  0  0  0  0  0  0  0  0  0  0
   51.3740   20.8210  188.9930 H   0  0  0  0  0  0  0  0  0  0  0  0
   40.6580   23.2060  183.2560 H   0  0  0  0  0  0  0  0  0  0  0  0
   53.0780   17.2400  188.7970 H   0  0  0  0  0  0  0  0  0  0  0  0
   51.9780   22.0540  192.0390 H   0  0  0  0  0  0  0  0  0  0  0  0
   52.5780   19.6420  193.8280 H   0  0  0  0  0  0  0  0  0  0  0  0
   50.0540   20.6580  193.4930 H   0  0  0  0  0  0  0  0  0  0  0  0
   49.8460   19.4290  195.1440 H   0  0  0  0  0  0  0  0  0  0  0  0
   50.7260   22.9450  193.6620 H   0  0  0  0  0  0  0  0  0  0  0  0
   49.1400   23.2160  194.9730 H   0  0  0  0  0  0  0  0  0  0  0  0
   52.2660   22.2390  196.2270 H   0  0  0  0  0  0  0  0  0  0  0  0
   52.4050   24.3070  192.9810 H   0  0  0  0  0  0  0  0  0  0  0  0
   55.0300   28.0440  194.7880 H   0  0  0  0  0  0  0  0  0  0  0  0
   46.0960   22.4510  183.8550 H   0  0  0  0  0  0  0  0  0  0  0  0
   55.7450   28.3200  196.3510 H   0  0  0  0  0  0  0  0  0  0  0  0
   54.8150   24.7740  198.9250 H   0  0  0  0  0  0  0  0  0  0  0  0
   52.1710   17.3060  186.7060 H   0  0  0  0  0  0  0  0  0  0  0  0
   51.0500   16.5030  187.7260 H   0  0  0  0  0  0  0  0  0  0  0  0
   53.1870   21.9770  189.9200 H   0  0  0  0  0  0  0  0  0  0  0  0
   54.2480   20.6690  189.6190 H   0  0  0  0  0  0  0  0  0  0  0  0
   53.5010   19.4420  191.5630 H   0  0  0  0  0  0  0  0  0  0  0  0
   43.1370   19.4420  184.6760 H   0  0  0  0  0  0  0  0  0  0  0  0
   41.3600   20.9930  184.0430 H   0  0  0  0  0  0  0  0  0  0  0  0
   45.7380   25.6590  182.7570 H   0  0  0  0  0  0  0  0  0  0  0  0
   45.3790   19.0350  185.1010 H   0  0  0  0  0  0  0  0  0  0  0  0
   39.7910   24.9170  180.4170 H   0  0  0  0  0  0  0  0  0  0  0  0
   38.3550   25.7340  181.0930 H   0  0  0  0  0  0  0  0  0  0  0  0
   45.7280   19.8960  184.6920 N   0  0  0  0  0  0  0  0  0  0  0  0
   53.8400   24.0850  197.2390 N   0  0  0  0  0  2  0  0  0  0  0  0
   47.7270   18.8580  184.2910 N   0  0  0  0  0  0  0  0  0  0  0  0
   51.1310   18.5840  187.9870 N   0  0  0  0  0  0  0  0  0  0  0  0
   52.2620   20.3290  189.0040 N   0  0  0  0  0  0  0  0  0  0  0  0
   53.1550   18.2190  189.0520 N   0  0  0  0  0  2  0  0  0  0  0  0
   52.8730   23.7920  195.0230 N   0  0  0  0  0  0  0  0  0  0  0  0
   53.5440   25.7160  194.0700 N   0  0  0  0  0  2  0  0  0  0  0  0
   55.2050   27.7220  195.7340 N   0  0  0  0  0  0  0  0  0  0  0  0
   55.0170   26.1800  197.4460 N   0  0  0  0  0  2  0  0  0  0  0  0
   45.6630   24.7180  183.0650 O   0  0  0  0  0  0  0  0  0  0  0  0
   39.7210   25.2960  182.4950 O   0  0  0  0  0  0  0  0  0  0  0  0
   41.1740   26.9380  182.0390 O   0  0  0  0  0  1  0  0  0  0  0  0
   47.6950   21.0790  184.7200 O   0  0  0  0  0  1  0  0  0  0  0  0
   50.5900   20.0400  195.3860 O   0  0  0  0  0  0  0  0  0  0  0  0
   49.8300   22.7370  195.5020 O   0  0  0  0  0  0  0  0  0  0  0  0
   53.0470   21.5160  194.5170 O   0  0  0  0  0  0  0  0  0  0  0  0
  1  3  1  0
  1 12  1  0
  1 27  1  0
  2 26  1  0
  2 30  1  0
  2 62  1  0
  3 78  1  0
  3 79  1  0
  4 32  1  0
  4 65  1  0
  4 66  1  0
  4 78  1  0
  5 67  1  0
  5 69  1  0
  5 80  1  0
  6  7  1  0
  6 34  1  0
  6 35  1  0
  6 69  1  0
  7  8  1  0
  7 36  1  0
  7 37  1  0
  8 21  1  0
  8 38  1  0
  8 39  1  0
  9 70  1  0
  9 71  1  0
  9 72  1  0
 10 11  1  0
 10 24  1  0
 10 44  1  0
 11 13  1  0
 11 45  1  0
 11 83  1  0
 12 23  1  0
 12 31  1  0
 13 14  1  0
 13 46  1  0
 13 81  1  0
 14 15  1  0
 14 48  1  0
 14 82  1  0
 15 50  1  0
 15 73  1  0
 15 83  1  0
 16 51  1  0
 16 73  1  0
 16 74  1  0
 17 18  1  0
 17 20  1  0
 17 74  1  0
 18 75  1  0
 18 76  1  0
 19 55  1  0
 19 68  1  0
 19 76  1  0
 20 68  1  0
 20 73  1  0
 21 56  1  0
 21 57  1  0
 21 70  1  0
 22 24  1  0
 22 58  1  0
 22 59  1  0
 22 71  1  0
 23 25  1  0
 23 77  1  0
 24 60  1  0
 25 26  1  0
 25 28  1  0
 26 27  1  0
 27 42  1  0
 28 29  1  0
 28 53  1  0
 29 30  1  0
 29 67  1  0
 30 61  1  0
 33 69  1  0
 40 70  1  0
 41 71  1  0
 43 72  1  0
 47 81  1  0
 49 82  1  0
 52 75  1  0
 54 75  1  0
 63 77  1  0
 64 67  1  0
M  END
$$$$
