7puc_B_85U_501
     RDKit          3D

 83 87  0  0  0  0  0  0  0  0999 V2000
   34.3000   25.2110  129.6590 C   0  0  0  0  0  3  0  0  0  0  0  0
   34.0600   21.6320  128.6170 C   0  0  0  0  0  3  0  0  0  0  0  0
   35.3100   26.2310  130.0530 C   0  0  0  0  0  3  0  0  0  0  0  0
   37.5000   26.4380  129.1950 C   0  0  0  0  0  0  0  0  0  0  0  0
   29.4600   20.0600  128.0270 C   0  0  0  0  0  3  0  0  0  0  0  0
   27.5570   18.4780  128.4210 C   0  0  0  0  0  0  0  0  0  0  0  0
   26.5480   19.4740  127.8760 C   0  0  0  0  0  0  0  0  0  0  0  0
   26.4450   19.4700  126.3600 C   0  0  0  0  0  0  0  0  0  0  0  0
   24.0440   19.6960  123.9260 C   0  0  0  0  0  3  0  0  0  0  0  0
   24.3560   22.0010  120.4250 C   0  0  0  0  0  3  0  0  0  0  0  0
   24.4870   21.5980  118.9970 C   0  0  0  0  0  0  0  0  0  0  0  0
   32.9560   25.5840  129.6260 C   0  0  0  0  0  3  0  0  0  0  0  0
   25.9020   21.7420  118.4220 C   0  0  0  0  0  0  0  0  0  0  0  0
   25.9220   23.2310  118.0770 C   0  0  0  0  0  0  0  0  0  0  0  0
   24.5190   23.3940  117.4970 C   0  0  0  0  0  0  0  0  0  0  0  0
   23.9560   25.5390  118.7280 C   0  0  0  0  0  3  0  0  0  0  0  0
   23.0690   26.7010  117.1910 C   0  0  0  0  0  3  0  0  0  0  0  0
   22.4520   27.6540  116.3580 C   0  0  0  0  0  3  0  0  0  0  0  0
   22.6200   26.1060  114.6470 C   0  0  0  0  0  3  0  0  0  0  0  0
   23.4080   25.4890  116.6120 C   0  0  0  0  0  3  0  0  0  0  0  0
   25.2300   18.7210  125.8520 C   0  0  0  0  0  0  0  0  0  0  0  0
   23.5670   21.8420  122.7810 C   0  0  0  0  0  0  0  0  0  0  0  0
   31.9910   24.6750  129.2680 C   0  0  0  0  0  3  0  0  0  0  0  0
   23.6770   21.3710  121.3600 C   0  0  0  0  0  3  0  0  0  0  0  0
   32.3360   23.3370  128.9190 C   0  0  0  0  0  3  0  0  0  0  0  0
   33.7090   22.9610  128.9550 C   0  0  0  0  0  3  0  0  0  0  0  0
   34.6710   23.9270  129.3310 C   0  0  0  0  0  3  0  0  0  0  0  0
   31.3740   22.3630  128.5440 C   0  0  0  0  0  3  0  0  0  0  0  0
   31.7520   21.0750  128.2250 C   0  0  0  0  0  3  0  0  0  0  0  0
   33.1030   20.7250  128.2630 C   0  0  0  0  0  3  0  0  0  0  0  0
   32.6940   26.6080  129.8890 H   0  0  0  0  0  0  0  0  0  0  0  0
   37.6380   27.4730  129.5060 H   0  0  0  0  0  0  0  0  0  0  0  0
   29.5820   18.0100  128.1700 H   0  0  0  0  0  0  0  0  0  0  0  0
   27.3800   18.2870  129.4720 H   0  0  0  0  0  0  0  0  0  0  0  0
   27.3670   17.5080  127.9630 H   0  0  0  0  0  0  0  0  0  0  0  0
   26.7050   20.4770  128.2610 H   0  0  0  0  0  0  0  0  0  0  0  0
   25.5640   19.2180  128.2650 H   0  0  0  0  0  0  0  0  0  0  0  0
   27.3480   19.0440  125.9250 H   0  0  0  0  0  0  0  0  0  0  0  0
   26.4390   20.5020  126.0140 H   0  0  0  0  0  0  0  0  0  0  0  0
   25.3530   18.1610  123.8350 H   0  0  0  0  0  0  0  0  0  0  0  0
   24.6190   21.5200  124.5500 H   0  0  0  0  0  0  0  0  0  0  0  0
   35.7110   23.6050  129.3500 H   0  0  0  0  0  0  0  0  0  0  0  0
   22.7140   18.2530  123.7950 H   0  0  0  0  0  0  0  0  0  0  0  0
   24.8810   22.9230  120.6710 H   0  0  0  0  0  0  0  0  0  0  0  0
   24.0900   20.5930  118.8610 H   0  0  0  0  0  0  0  0  0  0  0  0
   26.6560   21.5190  119.1680 H   0  0  0  0  0  0  0  0  0  0  0  0
   26.7620   20.2300  117.5450 H   0  0  0  0  0  0  0  0  0  0  0  0
   26.0680   23.8280  118.9760 H   0  0  0  0  0  0  0  0  0  0  0  0
   27.7110   23.8390  117.6280 H   0  0  0  0  0  0  0  0  0  0  0  0
   24.4610   23.1130  116.4470 H   0  0  0  0  0  0  0  0  0  0  0  0
   24.3540   25.2120  119.6860 H   0  0  0  0  0  0  0  0  0  0  0  0
   21.6230   29.5250  116.1390 H   0  0  0  0  0  0  0  0  0  0  0  0
   30.3300   22.6690  128.5220 H   0  0  0  0  0  0  0  0  0  0  0  0
   22.2110   29.1460  117.7330 H   0  0  0  0  0  0  0  0  0  0  0  0
   22.4200   25.9040  113.5960 H   0  0  0  0  0  0  0  0  0  0  0  0
   25.3360   17.6590  126.0600 H   0  0  0  0  0  0  0  0  0  0  0  0
   24.3450   19.0140  126.4160 H   0  0  0  0  0  0  0  0  0  0  0  0
   23.8980   22.8770  122.8400 H   0  0  0  0  0  0  0  0  0  0  0  0
   22.5120   21.8970  123.0460 H   0  0  0  0  0  0  0  0  0  0  0  0
   23.1360   20.4530  121.1360 H   0  0  0  0  0  0  0  0  0  0  0  0
   33.4060   19.7120  128.0020 H   0  0  0  0  0  0  0  0  0  0  0  0
   35.1090   21.3400  128.6430 H   0  0  0  0  0  0  0  0  0  0  0  0
   30.5560   25.9430  129.4770 H   0  0  0  0  0  0  0  0  0  0  0  0
   31.2180   19.2870  127.3410 H   0  0  0  0  0  0  0  0  0  0  0  0
   38.4660   25.9360  129.1650 H   0  0  0  0  0  0  0  0  0  0  0  0
   37.0310   26.4060  128.2130 H   0  0  0  0  0  0  0  0  0  0  0  0
   30.8200   20.0820  127.8310 N   0  0  0  0  0  0  0  0  0  0  0  0
   23.2110   25.1280  115.3390 N   0  0  0  0  0  2  0  0  0  0  0  0
   28.9590   18.8110  128.1880 N   0  0  0  0  0  0  0  0  0  0  0  0
   25.0250   18.9190  124.4250 N   0  0  0  0  0  0  0  0  0  0  0  0
   24.2980   21.0140  123.7310 N   0  0  0  0  0  0  0  0  0  0  0  0
   22.8680   19.2420  123.6350 N   0  0  0  0  0  2  0  0  0  0  0  0
   23.9740   24.7410  117.6140 N   0  0  0  0  0  0  0  0  0  0  0  0
   23.4240   26.7200  118.5310 N   0  0  0  0  0  2  0  0  0  0  0  0
   22.0690   28.8650  116.7680 N   0  0  0  0  0  0  0  0  0  0  0  0
   22.2360   27.3140  115.0690 N   0  0  0  0  0  2  0  0  0  0  0  0
   30.6680   24.9910  129.2180 O   0  0  0  0  0  0  0  0  0  0  0  0
   36.5540   25.7450  130.0450 O   0  0  0  0  0  0  0  0  0  0  0  0
   35.0420   27.3700  130.3510 O   0  0  0  0  0  1  0  0  0  0  0  0
   28.7580   21.0690  128.0390 O   0  0  0  0  0  1  0  0  0  0  0  0
   26.0960   20.9160  117.2790 O   0  0  0  0  0  0  0  0  0  0  0  0
   26.9050   23.5760  117.1110 O   0  0  0  0  0  0  0  0  0  0  0  0
   23.6840   22.4930  118.2020 O   0  0  0  0  0  0  0  0  0  0  0  0
  1  3  1  0
  1 12  1  0
  1 27  1  0
  2 26  1  0
  2 30  1  0
  2 62  1  0
  3 78  1  0
  3 79  1  0
  4 32  1  0
  4 65  1  0
  4 66  1  0
  4 78  1  0
  5 67  1  0
  5 69  1  0
  5 80  1  0
  6  7  1  0
  6 34  1  0
  6 35  1  0
  6 69  1  0
  7  8  1  0
  7 36  1  0
  7 37  1  0
  8 21  1  0
  8 38  1  0
  8 39  1  0
  9 70  1  0
  9 71  1  0
  9 72  1  0
 10 11  1  0
 10 24  1  0
 10 44  1  0
 11 13  1  0
 11 45  1  0
 11 83  1  0
 12 23  1  0
 12 31  1  0
 13 14  1  0
 13 46  1  0
 13 81  1  0
 14 15  1  0
 14 48  1  0
 14 82  1  0
 15 50  1  0
 15 73  1  0
 15 83  1  0
 16 51  1  0
 16 73  1  0
 16 74  1  0
 17 18  1  0
 17 20  1  0
 17 74  1  0
 18 75  1  0
 18 76  1  0
 19 55  1  0
 19 68  1  0
 19 76  1  0
 20 68  1  0
 20 73  1  0
 21 56  1  0
 21 57  1  0
 21 70  1  0
 22 24  1  0
 22 58  1  0
 22 59  1  0
 22 71  1  0
 23 25  1  0
 23 77  1  0
 24 60  1  0
 25 26  1  0
 25 28  1  0
 26 27  1  0
 27 42  1  0
 28 29  1  0
 28 53  1  0
 29 30  1  0
 29 67  1  0
 30 61  1  0
 33 69  1  0
 40 70  1  0
 41 71  1  0
 43 72  1  0
 47 81  1  0
 49 82  1  0
 52 75  1  0
 54 75  1  0
 63 77  1  0
 64 67  1  0
M  END
$$$$
