7pv6_B_LRZ_501
     RDKit          3D

 76 80  0  0  0  0  0  0  0  0999 V2000
   33.6160   23.8350  129.9100 C   0  0  0  0  0  3  0  0  0  0  0  0
   32.1540   21.0090  127.9480 C   0  0  0  0  0  3  0  0  0  0  0  0
   34.9230   24.3150  130.4330 C   0  0  0  0  0  3  0  0  0  0  0  0
   35.4620   25.9530  128.8100 C   0  0  0  0  0  0  0  0  0  0  0  0
   28.1250   19.7270  126.6950 C   0  0  0  0  0  3  0  0  0  0  0  0
   26.7710   18.6000  124.9100 C   0  0  0  0  0  0  0  0  0  0  0  0
   25.2210   18.6070  124.8060 C   0  0  0  0  0  0  0  0  0  0  0  0
   24.6310   19.5890  123.7660 C   0  0  0  0  0  0  0  0  0  0  0  0
   24.2840   19.5740  121.2860 C   0  0  0  0  0  3  0  0  0  0  0  0
   24.6080   21.8580  120.4440 C   0  0  0  0  0  0  0  0  0  0  0  0
   24.6560   21.6360  118.9380 C   0  0  0  0  0  0  0  0  0  0  0  0
   32.4830   24.6140  130.1310 C   0  0  0  0  0  3  0  0  0  0  0  0
   26.0350   21.8400  118.2940 C   0  0  0  0  0  0  0  0  0  0  0  0
   26.0000   23.3470  118.0050 C   0  0  0  0  0  0  0  0  0  0  0  0
   24.5690   23.4440  117.4670 C   0  0  0  0  0  0  0  0  0  0  0  0
   23.8500   25.5990  118.5770 C   0  0  0  0  0  3  0  0  0  0  0  0
   23.0350   26.6800  116.9510 C   0  0  0  0  0  3  0  0  0  0  0  0
   22.4470   27.5820  116.0510 C   0  0  0  0  0  3  0  0  0  0  0  0
   22.7880   25.9860  114.4150 C   0  0  0  0  0  3  0  0  0  0  0  0
   23.4530   25.4670  116.4370 C   0  0  0  0  0  3  0  0  0  0  0  0
   31.2640   24.2140  129.6520 C   0  0  0  0  0  3  0  0  0  0  0  0
   31.1230   23.0020  128.9090 C   0  0  0  0  0  3  0  0  0  0  0  0
   32.2830   22.2140  128.6830 C   0  0  0  0  0  3  0  0  0  0  0  0
   33.5230   22.6650  129.1950 C   0  0  0  0  0  3  0  0  0  0  0  0
   29.8890   22.5480  128.3820 C   0  0  0  0  0  3  0  0  0  0  0  0
   29.7900   21.3670  127.6730 C   0  0  0  0  0  3  0  0  0  0  0  0
   30.9410   20.6060  127.4630 C   0  0  0  0  0  3  0  0  0  0  0  0
   32.5850   25.5400  130.6950 H   0  0  0  0  0  0  0  0  0  0  0  0
   34.6680   25.8470  128.0720 H   0  0  0  0  0  0  0  0  0  0  0  0
   27.0450   20.6550  125.1760 H   0  0  0  0  0  0  0  0  0  0  0  0
   27.1000   17.6830  125.3930 H   0  0  0  0  0  0  0  0  0  0  0  0
   27.1950   18.5420  123.9090 H   0  0  0  0  0  0  0  0  0  0  0  0
   24.8470   17.6030  124.6120 H   0  0  0  0  0  0  0  0  0  0  0  0
   24.8370   18.8370  125.7990 H   0  0  0  0  0  0  0  0  0  0  0  0
   23.5460   19.6060  123.8590 H   0  0  0  0  0  0  0  0  0  0  0  0
   24.9360   20.6080  124.0000 H   0  0  0  0  0  0  0  0  0  0  0  0
   25.8960   18.7790  122.2510 H   0  0  0  0  0  0  0  0  0  0  0  0
   22.8320   20.9470  121.0760 H   0  0  0  0  0  0  0  0  0  0  0  0
   34.4070   22.0560  129.0140 H   0  0  0  0  0  0  0  0  0  0  0  0
   24.3150   17.8130  120.3550 H   0  0  0  0  0  0  0  0  0  0  0  0
   24.2050   22.8480  120.6370 H   0  0  0  0  0  0  0  0  0  0  0  0
   25.6210   21.9170  120.8390 H   0  0  0  0  0  0  0  0  0  0  0  0
   24.2590   20.6570  118.6790 H   0  0  0  0  0  0  0  0  0  0  0  0
   26.8170   21.6330  119.0110 H   0  0  0  0  0  0  0  0  0  0  0  0
   27.0840   21.3700  116.7170 H   0  0  0  0  0  0  0  0  0  0  0  0
   26.1240   23.9230  118.9210 H   0  0  0  0  0  0  0  0  0  0  0  0
   27.7850   23.4260  117.2850 H   0  0  0  0  0  0  0  0  0  0  0  0
   24.4760   23.0580  116.4530 H   0  0  0  0  0  0  0  0  0  0  0  0
   24.1890   25.3290  119.5750 H   0  0  0  0  0  0  0  0  0  0  0  0
   29.0020   23.1510  128.5680 H   0  0  0  0  0  0  0  0  0  0  0  0
   21.5700   29.4170  115.7150 H   0  0  0  0  0  0  0  0  0  0  0  0
   22.0580   29.1120  117.3600 H   0  0  0  0  0  0  0  0  0  0  0  0
   22.6740   25.7400  113.3600 H   0  0  0  0  0  0  0  0  0  0  0  0
   30.8770   19.6740  126.9030 H   0  0  0  0  0  0  0  0  0  0  0  0
   33.0430   20.4060  127.7690 H   0  0  0  0  0  0  0  0  0  0  0  0
   29.7480   24.6890  130.7300 H   0  0  0  0  0  0  0  0  0  0  0  0
   27.8320   21.7110  127.2200 H   0  0  0  0  0  0  0  0  0  0  0  0
   35.1830   26.7200  129.5310 H   0  0  0  0  0  0  0  0  0  0  0  0
   36.3990   26.2130  128.3200 H   0  0  0  0  0  0  0  0  0  0  0  0
   28.5120   20.9580  127.1830 N   0  0  0  0  0  0  0  0  0  0  0  0
   23.3600   25.0600  115.1740 N   0  0  0  0  0  2  0  0  0  0  0  0
   27.3110   19.7720  125.6000 N   0  0  0  0  0  0  0  0  0  0  0  0
   25.0180   19.2670  122.3930 N   0  0  0  0  0  0  0  0  0  0  0  0
   23.8390   20.8410  121.1490 N   0  0  0  0  0  0  0  0  0  0  0  0
   23.9900   18.7730  120.2900 N   0  0  0  0  0  2  0  0  0  0  0  0
   23.9820   24.7760  117.4950 N   0  0  0  0  0  0  0  0  0  0  0  0
   23.2970   26.7530  118.3080 N   0  0  0  0  0  2  0  0  0  0  0  0
   21.9900   28.7950  116.3980 N   0  0  0  0  0  0  0  0  0  0  0  0
   22.3460   27.1900  114.7670 N   0  0  0  0  0  2  0  0  0  0  0  0
   30.1350   24.9420  129.8510 O   0  0  0  0  0  0  0  0  0  0  0  0
   35.7520   24.6840  129.4550 O   0  0  0  0  0  0  0  0  0  0  0  0
   35.1980   24.4000  131.6000 O   0  0  0  0  0  1  0  0  0  0  0  0
   28.4490   18.6680  127.2260 O   0  0  0  0  0  1  0  0  0  0  0  0
   26.2580   21.0200  117.1420 O   0  0  0  0  0  0  0  0  0  0  0  0
   26.9110   23.8160  117.0190 O   0  0  0  0  0  0  0  0  0  0  0  0
   23.7940   22.5940  118.2860 O   0  0  0  0  0  0  0  0  0  0  0  0
  1  3  1  0
  1 12  1  0
  1 24  1  0
  2 23  1  0
  2 27  1  0
  2 55  1  0
  3 71  1  0
  3 72  1  0
  4 29  1  0
  4 58  1  0
  4 59  1  0
  4 71  1  0
  5 60  1  0
  5 62  1  0
  5 73  1  0
  6  7  1  0
  6 31  1  0
  6 32  1  0
  6 62  1  0
  7  8  1  0
  7 33  1  0
  7 34  1  0
  8 35  1  0
  8 36  1  0
  8 63  1  0
  9 63  1  0
  9 64  1  0
  9 65  1  0
 10 11  1  0
 10 41  1  0
 10 42  1  0
 10 64  1  0
 11 13  1  0
 11 43  1  0
 11 76  1  0
 12 21  1  0
 12 28  1  0
 13 14  1  0
 13 44  1  0
 13 74  1  0
 14 15  1  0
 14 46  1  0
 14 75  1  0
 15 48  1  0
 15 66  1  0
 15 76  1  0
 16 49  1  0
 16 66  1  0
 16 67  1  0
 17 18  1  0
 17 20  1  0
 17 67  1  0
 18 68  1  0
 18 69  1  0
 19 53  1  0
 19 61  1  0
 19 69  1  0
 20 61  1  0
 20 66  1  0
 21 22  1  0
 21 70  1  0
 22 23  1  0
 22 25  1  0
 23 24  1  0
 24 39  1  0
 25 26  1  0
 25 50  1  0
 26 27  1  0
 26 60  1  0
 27 54  1  0
 30 62  1  0
 37 63  1  0
 38 64  1  0
 40 65  1  0
 45 74  1  0
 47 75  1  0
 51 68  1  0
 52 68  1  0
 56 70  1  0
 57 60  1  0
M  END
$$$$
