8uqh_C_X9L_501
     RDKit          3D

 60159  0  0  0  0  0  0  0  0999 V2000
  -11.8320   34.4610  -22.4190 Br  0  0  0  0  0  3  0  0  0  0  0  0
  -10.3490   28.9820  -24.7220 Br  0  0  0  0  0  3  0  0  0  0  0  0
  -14.7390   21.5030  -11.4730 C   0  0  0  0  0  7  0  0  0  0  0  0
  -14.7310   21.4930  -11.4910 C   0  0  0  0  0  7  0  0  0  0  0  0
  -14.8270   23.2240   -9.9410 C   0  0  0  0  0  5  0  0  0  0  0  0
  -14.7850   23.1880   -9.9300 C   0  0  0  0  0  5  0  0  0  0  0  0
  -13.8040   23.6300  -12.0080 C   0  0  0  0  0  7  0  0  0  0  0  0
  -13.7970   23.6250  -12.0100 C   0  0  0  0  0  7  0  0  0  0  0  0
  -14.0660   22.3530  -12.4130 C   0  0  0  0  0  7  0  0  0  0  0  0
  -14.0610   22.3510  -12.3960 C   0  0  0  0  0  7  0  0  0  0  0  0
  -13.0470   23.4150  -14.0450 C   0  0  0  0  0  5  0  0  0  0  0  0
  -13.0160   23.3900  -14.0260 C   0  0  0  0  0  5  0  0  0  0  0  0
  -12.7280   25.6400  -12.9820 C   0  0  0  0  0  7  0  0  0  0  0  0
  -12.7220   25.6300  -12.9920 C   0  0  0  0  0  7  0  0  0  0  0  0
  -12.5730   27.1630  -14.6110 C   0  0  0  0  0  7  0  0  0  0  0  0
  -12.5730   27.1810  -14.6000 C   0  0  0  0  0  7  0  0  0  0  0  0
  -12.5440   26.6110  -15.9040 C   0  0  0  0  0  5  0  0  0  0  0  0
  -12.5230   26.6390  -15.8980 C   0  0  0  0  0  5  0  0  0  0  0  0
  -13.2750   28.6380  -17.8830 C   0  0  0  0  0  5  0  0  0  0  0  0
  -13.2350   28.6920  -17.8870 C   0  0  0  0  0  5  0  0  0  0  0  0
  -13.6060   28.4890  -19.3550 C   0  0  0  0  0  5  0  0  0  0  0  0
  -13.5220   28.3570  -19.3630 C   0  0  0  0  0  5  0  0  0  0  0  0
  -12.2620   30.2820  -19.9370 C   0  0  0  0  0  0  0  0  0  0  0  0
  -11.9150   29.3000  -20.7890 C   0  0  0  0  0  5  0  0  0  0  0  0
  -11.8240   30.8030  -21.2960 C   0  0  0  0  0  6  0  0  0  0  0  0
  -11.6120   30.3000  -21.9020 C   0  0  0  0  0  6  0  0  0  0  0  0
  -11.8190   31.6550  -21.6920 C   0  0  0  0  0  5  0  0  0  0  0  0
  -11.3700   29.8850  -22.2260 C   0  0  0  0  0  5  0  0  0  0  0  0
  -11.5450   32.5620  -22.7050 C   0  0  0  0  0  6  0  0  0  0  0  0
  -10.9730   30.3180  -23.4670 C   0  0  0  0  0  6  0  0  0  0  0  0
  -11.0640   32.1070  -23.9230 C   0  0  0  0  0  0  0  0  0  0  0  0
  -11.0190   31.6560  -23.8020 C   0  0  0  0  0  5  0  0  0  0  0  0
  -11.4760   32.5780  -22.8630 C   0  0  0  0  0  6  0  0  0  0  0  0
  -10.8580   30.7510  -24.1310 C   0  0  0  0  0  5  0  0  0  0  0  0
  -11.8790   32.1470  -21.6110 C   0  0  0  0  0  5  0  0  0  0  0  0
  -11.1320   29.8460  -23.1190 C   0  0  0  0  0  5  0  0  0  0  0  0
  -11.1760   27.0170  -13.9110 C   0  0  0  0  0  7  0  0  0  0  0  0
  -11.1690   26.9860  -13.9390 C   0  0  0  0  0  7  0  0  0  0  0  0
  -11.1980   25.8030  -13.5760 C   0  0  0  0  0  7  0  0  0  0  0  0
  -11.1980   25.8330  -13.5420 C   0  0  0  0  0  7  0  0  0  0  0  0
  -15.0460   20.1240  -11.8610 N   0  0  0  0  0  0  0  0  0  0  0  0
  -15.0420   20.1280  -11.8270 N   0  0  0  0  0  0  0  0  0  0  0  0
  -15.0950   21.9730  -10.2840 N   0  0  0  0  0  5  0  0  0  0  0  0
  -15.0640   21.9440  -10.2880 N   0  0  0  0  0  5  0  0  0  0  0  0
  -14.2010   24.0360  -10.7700 N   0  0  0  0  0  5  0  0  0  0  0  0
  -14.1700   24.0120  -10.7580 N   0  0  0  0  0  5  0  0  0  0  0  0
  -13.5910   22.2410  -13.6840 N   0  0  0  0  0  5  0  0  0  0  0  0
  -13.5630   22.2200  -13.6570 N   0  0  0  0  0  5  0  0  0  0  0  0
  -13.1660   24.2660  -13.0220 N   0  0  0  0  0  7  0  0  0  0  0  0
  -13.1580   24.2550  -13.0200 N   0  0  0  0  0  7  0  0  0  0  0  0
  -13.5440   29.6130  -20.0890 N   0  0  0  0  0  4  0  0  0  0  0  0
  -13.1680   29.6310  -20.1370 N   0  0  0  0  0  5  0  0  0  0  0  0
  -13.4900   26.3460  -13.7400 O   0  0  0  0  0  5  0  0  0  0  0  0
  -13.4900   26.3530  -13.7400 O   0  0  0  0  0  5  0  0  0  0  0  0
  -11.0920   27.9490  -12.7140 O   0  0  0  0  0  3  0  0  0  0  0  0
  -11.0620   27.9040  -12.7340 O   0  0  0  0  0  3  0  0  0  0  0  0
  -10.2100   25.6020  -12.4530 O   0  0  0  0  0  3  0  0  0  0  0  0
  -10.1930   25.5580  -12.5080 O   0  0  0  0  0  3  0  0  0  0  0  0
  -13.9170   27.2600  -16.8940 S   0  0  0  0  0  5  0  0  0  0  0  0
  -13.8760   27.2990  -16.9120 S   0  0  0  0  0  5  0  0  0  0  0  0
  1 29  1  0
  1 33  1  0
  1 35  1  0
  2 30  1  0
  2 34  1  0
  2 36  1  0
  3  4  1  0
  3  9  1  0
  3 10  1  0
  3 41  1  0
  3 42  1  0
  3 43  1  0
  3 44  1  0
  4  9  1  0
  4 10  1  0
  4 41  1  0
  4 42  1  0
  4 43  1  0
  4 44  1  0
  5  6  1  0
  5 43  1  0
  5 44  1  0
  5 45  1  0
  5 46  1  0
  6 43  1  0
  6 44  1  0
  6 45  1  0
  6 46  1  0
  7  8  1  0
  7  9  1  0
  7 10  1  0
  7 45  1  0
  7 46  1  0
  7 49  1  0
  7 50  1  0
  8  9  1  0
  8 10  1  0
  8 45  1  0
  8 46  1  0
  8 49  1  0
  8 50  1  0
  9 10  1  0
  9 47  1  0
  9 48  1  0
 10 47  1  0
 10 48  1  0
 11 12  1  0
 11 47  1  0
 11 48  1  0
 11 49  1  0
 11 50  1  0
 12 47  1  0
 12 48  1  0
 12 49  1  0
 12 50  1  0
 13 14  1  0
 13 39  1  0
 13 40  1  0
 13 49  1  0
 13 50  1  0
 13 53  1  0
 13 54  1  0
 14 39  1  0
 14 40  1  0
 14 49  1  0
 14 50  1  0
 14 53  1  0
 14 54  1  0
 15 16  1  0
 15 17  1  0
 15 18  1  0
 15 37  1  0
 15 38  1  0
 15 53  1  0
 15 54  1  0
 16 17  1  0
 16 18  1  0
 16 37  1  0
 16 38  1  0
 16 53  1  0
 16 54  1  0
 17 18  1  0
 17 59  1  0
 17 60  1  0
 18 59  1  0
 18 60  1  0
 19 20  1  0
 19 21  1  0
 19 22  1  0
 19 59  1  0
 19 60  1  0
 20 21  1  0
 20 22  1  0
 20 59  1  0
 20 60  1  0
 21 22  1  0
 21 51  1  0
 21 52  1  0
 22 51  1  0
 22 52  1  0
 23 24  1  0
 23 25  1  0
 23 51  1  0
 23 52  1  0
 24 25  1  0
 24 26  1  0
 24 28  1  0
 24 52  1  0
 25 26  1  0
 25 27  1  0
 25 28  1  0
 25 35  1  0
 26 27  1  0
 26 28  1  0
 26 30  1  0
 26 36  1  0
 27 29  1  0
 27 33  1  0
 27 35  1  0
 28 30  1  0
 28 36  1  0
 29 31  1  0
 29 32  1  0
 29 33  1  0
 29 35  1  0
 30 32  1  0
 30 34  1  0
 30 36  1  0
 31 32  1  0
 31 33  1  0
 31 34  1  0
 32 33  1  0
 32 34  1  0
 33 35  1  0
 34 36  1  0
 37 38  1  0
 37 39  1  0
 37 40  1  0
 37 55  1  0
 37 56  1  0
 38 39  1  0
 38 40  1  0
 38 55  1  0
 38 56  1  0
 39 40  1  0
 39 57  1  0
 39 58  1  0
 40 57  1  0
 40 58  1  0
 41 42  1  0
 43 44  1  0
 45 46  1  0
 47 48  1  0
 49 50  1  0
 51 52  1  0
 53 54  1  0
 55 56  1  0
 57 58  1  0
 59 60  1  0
M  END
$$$$
