9i1t_A_A01_501
     RDKit          3D

 90108  0  0  0  0  0  0  0  0999 V2000
   48.1440   26.2860  132.2800 C   0  0  0  0  0  3  0  0  0  0  0  0
   46.8970   25.1490  133.9500 C   0  0  0  0  0  0  0  0  0  0  0  0
   50.1510   38.0660  130.6880 C   0  0  0  0  0  0  0  0  0  0  0  0
   46.7920   28.8150  127.0350 C   0  0  0  0  0  0  0  0  0  0  0  0
   45.3640   29.2150  126.7920 C   0  0  0  0  0  3  0  0  0  0  0  0
   44.3280   28.5810  127.4660 C   0  0  0  0  0  3  0  0  0  0  0  0
   43.0110   28.9500  127.2440 C   0  0  0  0  0  3  0  0  0  0  0  0
   42.7120   29.9550  126.3490 C   0  0  0  0  0  3  0  0  0  0  0  0
   43.7320   30.5920  125.6750 C   0  0  0  0  0  3  0  0  0  0  0  0
   45.0500   30.2260  125.8940 C   0  0  0  0  0  3  0  0  0  0  0  0
   50.6830   42.1250  129.1500 C   0  0  0  0  0  3  0  0  0  0  0  0
   48.9430   37.1560  130.9050 C   0  0  0  0  0  0  0  0  0  0  0  0
   47.2390   23.8680  134.6510 C   0  0  0  0  0  3  0  0  0  0  0  0
   46.2730   23.1770  135.3710 C   0  0  0  0  0  3  0  0  0  0  0  0
   46.5930   22.0080  136.0410 C   0  0  0  0  0  3  0  0  0  0  0  0
   47.8790   21.5140  136.0010 C   0  0  0  0  0  3  0  0  0  0  0  0
   48.8460   22.1880  135.2860 C   0  0  0  0  0  3  0  0  0  0  0  0
   48.5300   23.3570  134.6140 C   0  0  0  0  0  3  0  0  0  0  0  0
   49.4630   36.2450  132.0190 C   0  0  0  0  0  0  0  0  0  0  0  0
   50.4260   39.9380  129.0040 C   0  0  0  0  0  3  0  0  0  0  0  0
   50.9290   36.0630  131.6320 C   0  0  0  0  0  0  0  0  0  0  0  0
   50.5200   39.9720  127.6220 C   0  0  0  0  0  3  0  0  0  0  0  0
   51.2330   34.8650  130.7520 C   0  0  0  0  0  0  0  0  0  0  0  0
   50.7230   41.2220  127.0200 C   0  0  0  0  0  3  0  0  0  0  0  0
   52.3460   33.9690  131.2850 C   0  0  0  0  0  0  0  0  0  0  0  0
   52.1180   32.5020  130.9460 C   0  0  0  0  0  0  0  0  0  0  0  0
   50.2340   37.9340  128.1590 C   0  0  0  0  0  3  0  0  0  0  0  0
   47.6550   27.4750  128.8090 C   0  0  0  0  0  0  0  0  0  0  0  0
   48.4550   26.2990  130.7920 C   0  0  0  0  0  5  0  0  0  0  0  0
   49.9680   26.3980  130.5710 C   0  0  0  0  0  6  0  0  0  0  0  0
   51.4520   28.2670  131.3840 C   0  0  0  0  0  6  0  0  0  0  0  0
   50.4840   27.8100  130.3070 C   0  0  0  0  0  0  0  0  0  0  0  0
   52.8260   30.2980  131.8750 C   0  0  0  0  0  3  0  0  0  0  0  0
   47.3360   28.0990  130.7480 H   0  0  0  0  0  2  0  0  0  0  0  0
   48.1260   20.5960  136.5320 H   0  0  0  0  0  0  0  0  0  0  0  0
   50.1860   38.8970  131.3910 H   0  0  0  0  0  0  0  0  0  0  0  0
   45.2510   23.5510  135.4140 H   0  0  0  0  0  0  0  0  0  0  0  0
   47.0500   27.9070  126.4920 H   0  0  0  0  0  0  0  0  0  0  0  0
   47.4840   29.5910  126.7080 H   0  0  0  0  0  0  0  0  0  0  0  0
   44.5550   27.7870  128.1750 H   0  0  0  0  0  0  0  0  0  0  0  0
   42.2120   28.4420  127.7810 H   0  0  0  0  0  0  0  0  0  0  0  0
   41.6770   30.2440  126.1760 H   0  0  0  0  0  0  0  0  0  0  0  0
   43.5060   31.3880  124.9660 H   0  0  0  0  0  0  0  0  0  0  0  0
   45.8400   30.7420  125.3510 H   0  0  0  0  0  0  0  0  0  0  0  0
   50.7500   43.0380  129.7400 H   0  0  0  0  0  0  0  0  0  0  0  0
   48.5890   36.6520  130.0070 H   0  0  0  0  0  0  0  0  0  0  0  0
   52.2660   32.3460  129.8780 H   0  0  0  0  0  0  0  0  0  0  0  0
   51.0790   32.2390  131.1410 H   0  0  0  0  0  0  0  0  0  0  0  0
   48.9400   35.2900  132.0490 H   0  0  0  0  0  0  0  0  0  0  0  0
   52.4350   34.1020  132.3620 H   0  0  0  0  0  0  0  0  0  0  0  0
   53.3040   34.3070  130.8930 H   0  0  0  0  0  0  0  0  0  0  0  0
   45.8150   25.2420  133.8640 H   0  0  0  0  0  0  0  0  0  0  0  0
   51.5600   36.0330  132.5190 H   0  0  0  0  0  0  0  0  0  0  0  0
   47.2500   25.9950  134.5370 H   0  0  0  0  0  0  0  0  0  0  0  0
   51.4780   35.2260  129.7540 H   0  0  0  0  0  0  0  0  0  0  0  0
   50.3140   34.2960  130.6190 H   0  0  0  0  0  0  0  0  0  0  0  0
   49.3040   23.8780  134.0530 H   0  0  0  0  0  0  0  0  0  0  0  0
   51.7170   41.1150  125.2170 H   0  0  0  0  0  0  0  0  0  0  0  0
   50.1450   41.8300  125.1370 H   0  0  0  0  0  0  0  0  0  0  0  0
   49.8640   21.8020  135.2490 H   0  0  0  0  0  0  0  0  0  0  0  0
   50.1010   36.8540  128.1040 H   0  0  0  0  0  0  0  0  0  0  0  0
   45.8220   21.4820  136.6010 H   0  0  0  0  0  0  0  0  0  0  0  0
   48.1220   25.3460  130.3830 H   0  0  0  0  0  0  0  0  0  0  0  0
   50.4820   25.9720  131.4310 H   0  0  0  0  0  0  0  0  0  0  0  0
   50.2510   25.7430  129.7480 H   0  0  0  0  0  2  0  0  0  0  0  0
   51.0440   28.0520  132.3700 H   0  0  0  0  0  0  0  0  0  0  0  0
   52.3730   27.6880  131.3300 H   0  0  0  0  0  2  0  0  0  0  0  0
   51.1080   30.2210  130.7130 H   0  0  0  0  0  2  0  0  0  0  0  0
   50.9550   27.8610  129.3270 Hg  0  0  0  0  0  7  0  0  0  0  0  0
   49.6500   28.5060  130.2270 Hg  0  0  0  0  0 10  0  0  0  0  0  0
   53.4340   28.6190  132.7140 H   0  0  0  0  0  0  0  0  0  0  0  0
   53.8140   32.0680  132.1360 H   0  0  0  0  0  0  0  0  0  0  0  0
   47.0020   37.5560  130.8540 H   0  0  0  0  0  0  0  0  0  0  0  0
   48.8150   36.2220  133.8600 H   0  0  0  0  0  0  0  0  0  0  0  0
   47.7520   27.3950  130.1460 N   0  0  0  0  0  4  0  0  0  0  0  0
   50.8000   42.3020  127.8300 N   0  0  0  0  0  2  0  0  0  0  0  0
   50.4970   40.9920  129.8280 N   0  0  0  0  0  2  0  0  0  0  0  0
   50.8720   41.4010  125.7010 N   0  0  0  0  0  0  0  0  0  0  0  0
   50.3920   38.6870  127.1020 N   0  0  0  0  0  2  0  0  0  0  0  0
   50.2520   38.6240  129.3450 N   0  0  0  0  0  0  0  0  0  0  0  0
   51.7590   29.6870  131.2790 N   0  0  0  0  0  5  0  0  0  0  0  0
   53.0050   31.6330  131.7050 N   0  0  0  0  0  0  0  0  0  0  0  0
   53.6380   29.6080  132.6130 N   0  0  0  0  0  2  0  0  0  0  0  0
   48.4130   27.1790  133.0350 O   0  0  0  0  0  1  0  0  0  0  0  0
   48.1010   26.6600  128.0290 O   0  0  0  0  0  1  0  0  0  0  0  0
   47.8070   37.9020  131.3220 O   0  0  0  0  0  0  0  0  0  0  0  0
   46.9760   28.5850  128.4570 O   0  0  0  0  0  0  0  0  0  0  0  0
   49.3340   36.8550  133.2980 O   0  0  0  0  0  0  0  0  0  0  0  0
   51.3000   37.2710  130.9290 O   0  0  0  0  0  0  0  0  0  0  0  0
   47.5060   25.1690  132.6280 O   0  0  0  0  0  0  0  0  0  0  0  0
  1 29  1  0
  1 84  1  0
  1 90  1  0
  2 13  1  0
  2 52  1  0
  2 54  1  0
  2 90  1  0
  3 12  1  0
  3 36  1  0
  3 80  1  0
  3 89  1  0
  4  5  1  0
  4 38  1  0
  4 39  1  0
  4 87  1  0
  5  6  1  0
  5 10  1  0
  6  7  1  0
  6 40  1  0
  7  8  1  0
  7 41  1  0
  8  9  1  0
  8 42  1  0
  9 10  1  0
  9 43  1  0
 10 44  1  0
 11 45  1  0
 11 76  1  0
 11 77  1  0
 12 19  1  0
 12 46  1  0
 12 86  1  0
 13 14  1  0
 13 18  1  0
 14 15  1  0
 14 37  1  0
 15 16  1  0
 15 62  1  0
 16 17  1  0
 16 35  1  0
 17 18  1  0
 17 60  1  0
 18 57  1  0
 19 21  1  0
 19 49  1  0
 19 88  1  0
 20 22  1  0
 20 77  1  0
 20 80  1  0
 21 23  1  0
 21 53  1  0
 21 89  1  0
 22 24  1  0
 22 79  1  0
 23 25  1  0
 23 55  1  0
 23 56  1  0
 24 76  1  0
 24 78  1  0
 25 26  1  0
 25 50  1  0
 25 51  1  0
 26 47  1  0
 26 48  1  0
 26 82  1  0
 27 61  1  0
 27 79  1  0
 27 80  1  0
 28 70  1  0
 28 75  1  0
 28 85  1  0
 28 87  1  0
 29 30  1  0
 29 63  1  0
 29 70  1  0
 29 75  1  0
 30 32  1  0
 30 64  1  0
 30 65  1  0
 30 69  1  0
 30 70  1  0
 31 32  1  0
 31 66  1  0
 31 67  1  0
 31 69  1  0
 31 70  1  0
 31 81  1  0
 32 69  1  0
 32 70  1  0
 33 81  1  0
 33 82  1  0
 33 83  1  0
 34 70  1  0
 34 75  1  0
 58 78  1  0
 59 78  1  0
 65 69  1  0
 67 69  1  0
 68 70  1  0
 68 81  1  0
 69 70  1  0
 69 81  1  0
 70 75  1  0
 70 81  1  0
 71 83  1  0
 72 82  1  0
 73 86  1  0
 74 88  1  0
M  END
$$$$
