9i9u_C_A02_501
     RDKit          3D

 93 97  0  0  0  0  0  0  0  0999 V2000
   25.9610   25.5660  182.6440 C   0  0  0  0  0  3  0  0  0  0  0  0
   26.4930   23.2870  182.9680 C   0  0  0  0  0  0  0  0  0  0  0  0
   30.5010   28.0910  184.0120 C   0  0  0  0  0  0  0  0  0  0  0  0
   31.0120   29.2170  184.9520 C   0  0  0  0  0  3  0  0  0  0  0  0
   30.0350   29.9480  185.8620 C   0  0  0  0  0  3  0  0  0  0  0  0
   30.4800   30.9020  186.6670 C   0  0  0  0  0  3  0  0  0  0  0  0
   31.9640   31.2620  186.6830 C   0  0  0  0  0  3  0  0  0  0  0  0
   32.8100   30.6270  185.8990 C   0  0  0  0  0  3  0  0  0  0  0  0
   32.3010   29.5260  184.9720 C   0  0  0  0  0  3  0  0  0  0  0  0
   26.5770   27.5560  181.2730 C   0  0  0  0  0  0  0  0  0  0  0  0
   25.1340   28.0430  180.9920 C   0  0  0  0  0  0  0  0  0  0  0  0
   24.9110   29.4390  181.7130 C   0  0  0  0  0  0  0  0  0  0  0  0
   27.8540   22.6430  183.2500 C   0  0  0  0  0  3  0  0  0  0  0  0
   24.7340   31.8360  181.0750 C   0  0  0  0  0  3  0  0  0  0  0  0
   24.6880   33.3900  183.0580 C   0  0  0  0  0  0  0  0  0  0  0  0
   24.5530   34.2360  180.1230 C   0  0  0  0  0  0  0  0  0  0  0  0
   26.0110   34.7780  180.0920 C   0  0  0  0  0  0  0  0  0  0  0  0
   26.1010   35.9090  181.1550 C   0  0  0  0  0  0  0  0  0  0  0  0
   26.7690   37.1070  180.5480 C   0  0  0  0  0  0  0  0  0  0  0  0
   27.7230   38.7520  182.0840 C   0  0  0  0  0  0  0  0  0  0  0  0
   27.1970   38.2490  184.2790 C   0  0  0  0  0  3  0  0  0  0  0  0
   26.9520   40.3560  185.0250 C   0  0  0  0  0  3  0  0  0  0  0  0
   26.7700   41.5760  185.6080 C   0  0  0  0  0  3  0  0  0  0  0  0
   28.6310   22.2800  182.2390 C   0  0  0  0  0  3  0  0  0  0  0  0
   27.2510   42.5720  183.5930 C   0  0  0  0  0  3  0  0  0  0  0  0
   27.2960   40.3700  183.6400 C   0  0  0  0  0  3  0  0  0  0  0  0
   28.6220   37.6230  181.9460 C   0  0  0  0  0  0  0  0  0  0  0  0
   28.2470   36.9490  180.6530 C   0  0  0  0  0  0  0  0  0  0  0  0
   29.9990   21.6400  182.5170 C   0  0  0  0  0  3  0  0  0  0  0  0
   30.4030   21.4440  183.7640 C   0  0  0  0  0  3  0  0  0  0  0  0
   29.4980   21.8570  184.9300 C   0  0  0  0  0  3  0  0  0  0  0  0
   28.3150   22.4160  184.6840 C   0  0  0  0  0  3  0  0  0  0  0  0
   26.6110   26.9310  182.6700 C   0  0  0  0  0  0  0  0  0  0  0  0
   28.3700   27.1650  184.4470 C   0  0  0  0  0  3  0  0  0  0  0  0
   26.0720   27.5640  183.3630 H   0  0  0  0  0  0  0  0  0  0  0  0
   26.4690   37.2260  179.5170 H   0  0  0  0  0  0  0  0  0  0  0  0
   27.6760   22.7120  185.5090 H   0  0  0  0  0  0  0  0  0  0  0  0
   28.6770   26.4490  182.4420 H   0  0  0  0  0  0  0  0  0  0  0  0
   31.3410   27.5810  183.5590 H   0  0  0  0  0  0  0  0  0  0  0  0
   29.8760   28.5150  183.2370 H   0  0  0  0  0  0  0  0  0  0  0  0
   28.9870   29.6920  185.8510 H   0  0  0  0  0  0  0  0  0  0  0  0
   29.7920   31.4270  187.3130 H   0  0  0  0  0  0  0  0  0  0  0  0
   32.3230   32.0440  187.3440 H   0  0  0  0  0  0  0  0  0  0  0  0
   33.8580   30.8840  185.9110 H   0  0  0  0  0  0  0  0  0  0  0  0
   32.9930   28.9960  184.3320 H   0  0  0  0  0  0  0  0  0  0  0  0
   26.8630   26.8180  180.5350 H   0  0  0  0  0  0  0  0  0  0  0  0
   28.5300   36.9140  182.7600 H   0  0  0  0  0  0  0  0  0  0  0  0
   27.2610   28.3930  181.2300 H   0  0  0  0  0  0  0  0  0  0  0  0
   24.4230   27.3180  181.3760 H   0  0  0  0  0  0  0  0  0  0  0  0
   24.9900   28.1590  179.9220 H   0  0  0  0  0  0  0  0  0  0  0  0
   25.7460   29.6720  182.3600 H   0  0  0  0  0  0  0  0  0  0  0  0
   23.9980   29.4280  182.2930 H   0  0  0  0  0  0  0  0  0  0  0  0
   25.5640   33.9370  182.7230 H   0  0  0  0  0  0  0  0  0  0  0  0
   24.6760   33.3560  184.1420 H   0  0  0  0  0  0  0  0  0  0  0  0
   23.7930   33.8890  182.7020 H   0  0  0  0  0  0  0  0  0  0  0  0
   28.5610   35.9150  180.6800 H   0  0  0  0  0  0  0  0  0  0  0  0
   23.9640   34.6790  179.3240 H   0  0  0  0  0  0  0  0  0  0  0  0
   24.0850   34.4520  181.0800 H   0  0  0  0  0  0  0  0  0  0  0  0
   26.7090   33.9830  180.3350 H   0  0  0  0  0  0  0  0  0  0  0  0
   26.2410   35.1730  179.1080 H   0  0  0  0  0  0  0  0  0  0  0  0
   26.6790   35.5630  182.0040 H   0  0  0  0  0  0  0  0  0  0  0  0
   25.1040   36.1780  181.4830 H   0  0  0  0  0  0  0  0  0  0  0  0
   28.2170   39.6130  181.6530 H   0  0  0  0  0  0  0  0  0  0  0  0
   27.6030   37.2520  184.2190 H   0  0  0  0  0  0  0  0  0  0  0  0
   26.9600   41.1870  187.6930 H   0  0  0  0  0  0  0  0  0  0  0  0
   25.6070   42.1840  187.2670 H   0  0  0  0  0  0  0  0  0  0  0  0
   25.9990   23.5350  183.9030 H   0  0  0  0  0  0  0  0  0  0  0  0
   27.3710   43.5010  183.0550 H   0  0  0  0  0  0  0  0  0  0  0  0
   29.9430   39.0740  181.9760 H   0  0  0  0  0  0  0  0  0  0  0  0
   29.7700   37.7220  179.7340 H   0  0  0  0  0  0  0  0  0  0  0  0
   23.8950   31.5850  182.8590 H   0  0  0  0  0  0  0  0  0  0  0  0
   25.5560   32.6630  179.4670 H   0  0  0  0  0  0  0  0  0  0  0  0
   25.8700   22.6040  182.3990 H   0  0  0  0  0  0  0  0  0  0  0  0
   28.3020   22.4360  181.2180 H   0  0  0  0  0  0  0  0  0  0  0  0
   30.6370   21.3470  181.6880 H   0  0  0  0  0  0  0  0  0  0  0  0
   31.3740   20.9910  183.9590 H   0  0  0  0  0  0  0  0  0  0  0  0
   29.8210   21.6940  185.9510 H   0  0  0  0  0  0  0  0  0  0  0  0
   27.9910   26.7930  183.0810 N   0  0  0  0  0  0  0  0  0  0  0  0
   24.8170   30.4190  180.6050 N   0  0  0  0  0  2  0  0  0  0  0  0
   24.7320   32.0310  182.5290 N   0  0  0  0  0  0  0  0  0  0  0  0
   24.6780   32.7770  179.9260 N   0  0  0  0  0  0  0  0  0  0  0  0
   27.3920   39.1260  183.4060 N   0  0  0  0  0  0  0  0  0  0  0  0
   26.8820   38.8640  185.4590 N   0  0  0  0  0  2  0  0  0  0  0  0
   26.4080   41.6570  186.9940 N   0  0  0  0  0  0  0  0  0  0  0  0
   26.9130   42.6810  184.8970 N   0  0  0  0  0  2  0  0  0  0  0  0
   27.4560   41.4460  182.8840 N   0  0  0  0  0  2  0  0  0  0  0  0
   24.8280   25.4310  182.9820 O   0  0  0  0  0  1  0  0  0  0  0  0
   26.7270   24.4550  182.2240 O   0  0  0  0  0  0  0  0  0  0  0  0
   27.5320   27.4590  185.2600 O   0  0  0  0  0  1  0  0  0  0  0  0
   29.7450   27.1760  184.7930 O   0  0  0  0  0  0  0  0  0  0  0  0
   26.4190   38.2990  181.3490 O   0  0  0  0  0  0  0  0  0  0  0  0
   29.9530   38.1300  181.8960 O   0  0  0  0  0  0  0  0  0  0  0  0
   28.8490   37.5710  179.5300 O   0  0  0  0  0  0  0  0  0  0  0  0
  1 33  1  0
  1 87  1  0
  1 88  1  0
  2 13  1  0
  2 67  1  0
  2 73  1  0
  2 88  1  0
  3  4  1  0
  3 39  1  0
  3 40  1  0
  3 90  1  0
  4  5  1  0
  4  9  1  0
  5  6  1  0
  5 41  1  0
  6  7  1  0
  6 42  1  0
  7  8  1  0
  7 43  1  0
  8  9  1  0
  8 44  1  0
  9 45  1  0
 10 11  1  0
 10 33  1  0
 10 46  1  0
 10 48  1  0
 11 12  1  0
 11 49  1  0
 11 50  1  0
 12 51  1  0
 12 52  1  0
 12 79  1  0
 13 24  1  0
 13 32  1  0
 14 79  1  0
 14 80  1  0
 14 81  1  0
 15 53  1  0
 15 54  1  0
 15 55  1  0
 15 80  1  0
 16 17  1  0
 16 57  1  0
 16 58  1  0
 16 81  1  0
 17 18  1  0
 17 59  1  0
 17 60  1  0
 18 19  1  0
 18 61  1  0
 18 62  1  0
 19 28  1  0
 19 36  1  0
 19 91  1  0
 20 27  1  0
 20 63  1  0
 20 82  1  0
 20 91  1  0
 21 64  1  0
 21 82  1  0
 21 83  1  0
 22 23  1  0
 22 26  1  0
 22 83  1  0
 23 84  1  0
 23 85  1  0
 24 29  1  0
 24 74  1  0
 25 68  1  0
 25 85  1  0
 25 86  1  0
 26 82  1  0
 26 86  1  0
 27 28  1  0
 27 47  1  0
 27 92  1  0
 28 56  1  0
 28 93  1  0
 29 30  1  0
 29 75  1  0
 30 31  1  0
 30 76  1  0
 31 32  1  0
 31 77  1  0
 32 37  1  0
 33 35  1  0
 33 78  1  0
 34 78  1  0
 34 89  1  0
 34 90  1  0
 38 78  1  0
 65 84  1  0
 66 84  1  0
 69 92  1  0
 70 93  1  0
 71 80  1  0
 72 81  1  0
M  END
$$$$
