9o37_A_A03_501
     RDKit          3D

 50 55  0  0  0  0  0  0  0  0999 V2000
    7.5730   18.1590  -26.4430 C   0  0  0  0  0  3  0  0  0  0  0  0
    7.9130   18.9130  -28.6400 C   0  0  0  0  0  2  0  0  0  0  0  0
    6.0720   19.7840  -27.4290 C   0  0  0  0  0  3  0  0  0  0  0  0
    6.3920   19.0280  -26.3340 C   0  0  0  0  0  3  0  0  0  0  0  0
    4.5820   20.2200  -25.8560 C   0  0  0  0  0  2  0  0  0  0  0  0
    4.3150   21.3840  -27.9180 C   0  0  0  0  0  3  0  0  0  0  0  0
    3.8670   23.5780  -27.3600 C   0  0  0  0  0  3  0  0  0  0  0  0
    3.7640   23.9330  -25.8880 C   0  0  0  0  0  2  0  0  0  0  0  0
    3.2720   26.1840  -27.0040 C   0  0  0  0  0  2  0  0  0  0  0  0
    4.6200   26.9120  -26.8180 C   0  0  0  0  0  2  0  0  0  0  0  0
    4.2690   28.8360  -28.6680 C   0  0  0  0  0  3  0  0  0  0  0  0
    4.8300   30.6280  -30.4520 C   0  0  0  0  0  2  0  0  0  0  0  0
    4.7780   31.9240  -29.6160 C   0  0  0  0  0  3  0  0  0  0  0  0
    4.1970   33.1110  -30.0690 C   0  0  0  0  0  2  0  0  0  0  0  0
    4.1710   34.2490  -29.3120 C   0  0  0  0  0  2  0  0  0  0  0  0
    4.7230   34.2740  -28.0340 C   0  0  0  0  0  2  0  0  0  0  0  0
    5.3010   33.1150  -27.5560 C   0  0  0  0  0  2  0  0  0  0  0  0
    5.3170   31.9820  -28.3470 C   0  0  0  0  0  2  0  0  0  0  0  0
    3.4130   25.6870  -24.4320 C   0  0  0  0  0  2  0  0  0  0  0  0
    2.3430   26.7470  -23.9470 C   0  0  0  0  0  2  0  0  0  0  0  0
    2.4400   27.0460  -22.4500 C   0  0  0  0  0  2  0  0  0  0  0  0
    0.3240   27.7690  -22.1360 C   0  0  0  0  0  2  0  0  0  0  0  0
   -0.6180   28.9240  -21.6950 C   0  0  0  0  0  3  0  0  0  0  0  0
   -0.4780   30.1870  -22.2010 C   0  0  0  0  0  2  0  0  0  0  0  0
   -1.3500   31.2090  -21.7720 C   0  0  0  0  0  2  0  0  0  0  0  0
   -2.3360   30.8740  -20.8350 C   0  0  0  0  0  2  0  0  0  0  0  0
   -2.4410   29.5910  -20.3460 C   0  0  0  0  0  3  0  0  0  0  0  0
   -3.5420   29.2140  -19.3080 C   0  0  0  0  0  3  0  0  0  0  0  0
   -3.7420   27.8500  -19.0140 C   0  0  0  0  0  2  0  0  0  0  0  0
   -4.7480   27.5160  -18.0740 C   0  0  0  0  0  2  0  0  0  0  0  0
   -5.4920   28.5380  -17.4900 C   0  0  0  0  0  3  0  0  0  0  0  0
   -5.2930   29.8970  -17.7860 C   0  0  0  0  0  2  0  0  0  0  0  0
   -4.2890   30.2320  -18.7220 C   0  0  0  0  0  2  0  0  0  0  0  0
   -1.5940   28.5470  -20.7520 C   0  0  0  0  0  2  0  0  0  0  0  0
    2.5180   22.8200  -27.9800 C   0  0  0  0  0  3  0  0  0  0  0  0
    2.7690   21.5780  -27.8250 C   0  0  0  0  0  3  0  0  0  0  0  0
   -6.7880   28.1600  -16.2890 Cl  0  0  0  0  0  0  0  0  0  0  0  0
    7.9870   17.3100  -25.3060 N   0  0  0  0  0  1  0  0  0  0  0  0
    8.2470   18.1640  -27.5850 N   0  0  0  0  0  2  0  0  0  0  0  0
    6.8310   19.7230  -28.5640 N   0  0  0  0  0  2  0  0  0  0  0  0
    5.4580   19.2930  -25.3320 N   0  0  0  0  0  2  0  0  0  0  0  0
    4.9220   20.5340  -27.1110 N   0  0  0  0  0  0  0  0  0  0  0  0
    3.1170   25.2590  -25.8040 N   0  0  0  0  0  0  0  0  0  0  0  0
    5.0030   27.9090  -27.8420 N   0  0  0  0  0  2  0  0  0  0  0  0
    5.2500   29.5880  -29.4920 N   0  0  0  0  0  2  0  0  0  0  0  0
    1.6980   28.2630  -22.2230 N   0  0  0  0  0  2  0  0  0  0  0  0
    4.8230   22.7420  -27.3520 O   0  0  0  0  0  0  0  0  0  0  0  0
    3.1410   29.1930  -28.7540 O   0  0  0  0  0  1  0  0  0  0  0  0
    2.4200   23.3230  -29.3610 O   0  0  0  0  0  1  0  0  0  0  0  0
    2.2480   20.6970  -28.9200 O   0  0  0  0  0  1  0  0  0  0  0  0
  1  4  1  0
  1 38  1  0
  1 39  1  0
  2 39  1  0
  2 40  1  0
  3  4  1  0
  3 40  1  0
  3 42  1  0
  4 41  1  0
  5 41  1  0
  5 42  1  0
  6 36  1  0
  6 42  1  0
  6 47  1  0
  7  8  1  0
  7 35  1  0
  7 47  1  0
  8 43  1  0
  9 10  1  0
  9 43  1  0
 10 44  1  0
 11 44  1  0
 11 45  1  0
 11 48  1  0
 12 13  1  0
 12 45  1  0
 13 14  1  0
 13 18  1  0
 14 15  1  0
 15 16  1  0
 16 17  1  0
 17 18  1  0
 19 20  1  0
 19 43  1  0
 20 21  1  0
 21 46  1  0
 22 23  1  0
 22 46  1  0
 23 24  1  0
 23 34  1  0
 24 25  1  0
 25 26  1  0
 26 27  1  0
 27 28  1  0
 27 34  1  0
 28 29  1  0
 28 33  1  0
 29 30  1  0
 30 31  1  0
 31 32  1  0
 31 37  1  0
 32 33  1  0
 35 36  1  0
 35 49  1  0
 36 50  1  0
M  END
$$$$
