9o6h_C_A04_501
     RDKit          3D

 37 41  0  0  0  0  0  0  0  0999 V2000
  -47.7080   42.6490  -22.2040 C   0  0  0  0  0  3  0  0  0  0  0  0
  -47.9070   43.6600  -24.3360 C   0  0  0  0  0  2  0  0  0  0  0  0
  -47.4670   41.4210  -24.3210 C   0  0  0  0  0  3  0  0  0  0  0  0
  -47.4650   41.4090  -22.8970 C   0  0  0  0  0  3  0  0  0  0  0  0
  -47.0610   39.3450  -23.5980 C   0  0  0  0  0  2  0  0  0  0  0  0
  -47.1150   39.6860  -26.2320 C   0  0  0  0  0  3  0  0  0  0  0  0
  -48.0480   37.9890  -27.5240 C   0  0  0  0  0  3  0  0  0  0  0  0
  -48.5510   36.6440  -27.0100 C   0  0  0  0  0  2  0  0  0  0  0  0
  -50.0710   34.0860  -27.7540 C   0  0  0  0  0  2  0  0  0  0  0  0
  -49.6850   33.6780  -26.3210 C   0  0  0  0  0  2  0  0  0  0  0  0
  -50.2230   32.3000  -25.8140 C   0  0  0  0  0  2  0  0  0  0  0  0
  -49.6930   30.6730  -27.6620 C   0  0  0  0  0  2  0  0  0  0  0  0
  -49.3020   29.3050  -27.0540 C   0  0  0  0  0  3  0  0  0  0  0  0
  -48.0560   29.0650  -26.4050 C   0  0  0  0  0  2  0  0  0  0  0  0
  -47.6570   27.8190  -25.8360 C   0  0  0  0  0  3  0  0  0  0  0  0
  -46.3100   27.5430  -25.1310 C   0  0  0  0  0  3  0  0  0  0  0  0
  -45.8810   28.2330  -23.9760 C   0  0  0  0  0  2  0  0  0  0  0  0
  -44.6610   27.9960  -23.3140 C   0  0  0  0  0  2  0  0  0  0  0  0
  -43.8080   27.0220  -23.8160 C   0  0  0  0  0  3  0  0  0  0  0  0
  -44.1480   26.2940  -24.9460 C   0  0  0  0  0  2  0  0  0  0  0  0
  -45.3800   26.5630  -25.5760 C   0  0  0  0  0  2  0  0  0  0  0  0
  -48.6180   26.8020  -25.9710 C   0  0  0  0  0  2  0  0  0  0  0  0
  -49.8550   26.9950  -26.6030 C   0  0  0  0  0  2  0  0  0  0  0  0
  -50.1910   28.2360  -27.1390 C   0  0  0  0  0  2  0  0  0  0  0  0
  -46.5260   37.9150  -27.7520 C   0  0  0  0  0  3  0  0  0  0  0  0
  -46.0340   38.5870  -26.4690 C   0  0  0  0  0  3  0  0  0  0  0  0
  -42.2580   26.7010  -23.0000 Cl  0  0  0  0  0  0  0  0  0  0  0  0
  -47.7350   42.7910  -20.8380 N   0  0  0  0  0  1  0  0  0  0  0  0
  -47.9330   43.7840  -22.9740 N   0  0  0  0  0  2  0  0  0  0  0  0
  -47.6900   42.5480  -25.0750 N   0  0  0  0  0  2  0  0  0  0  0  0
  -47.2050   40.0860  -22.4740 N   0  0  0  0  0  2  0  0  0  0  0  0
  -47.2190   40.1300  -24.7800 N   0  0  0  0  0  0  0  0  0  0  0  0
  -50.7500   31.4440  -26.9310 N   0  0  0  0  0  2  0  0  0  0  0  0
  -48.3120   39.0530  -26.6060 O   0  0  0  0  0  0  0  0  0  0  0  0
  -46.1620   38.6230  -28.8910 O   0  0  0  0  0  1  0  0  0  0  0  0
  -44.8180   39.2170  -26.7090 O   0  0  0  0  0  1  0  0  0  0  0  0
  -49.0900   35.5310  -28.3770 S   0  0  0  0  0  0  0  0  0  0  0  0
  1  4  1  0
  1 28  1  0
  1 29  1  0
  2 29  1  0
  2 30  1  0
  3  4  1  0
  3 30  1  0
  3 32  1  0
  4 31  1  0
  5 31  1  0
  5 32  1  0
  6 26  1  0
  6 32  1  0
  6 34  1  0
  7  8  1  0
  7 25  1  0
  7 34  1  0
  8 37  1  0
  9 10  1  0
  9 37  1  0
 10 11  1  0
 11 33  1  0
 12 13  1  0
 12 33  1  0
 13 14  1  0
 13 24  1  0
 14 15  1  0
 15 16  1  0
 15 22  1  0
 16 17  1  0
 16 21  1  0
 17 18  1  0
 18 19  1  0
 19 20  1  0
 19 27  1  0
 20 21  1  0
 22 23  1  0
 23 24  1  0
 25 26  1  0
 25 35  1  0
 26 36  1  0
M  END
$$$$
