4ikp_D_4IK_501
     RDKit          3D

 28 30  0  0  0  0  0  0  0  0999 V2000
   13.9730   13.6180   70.4190 C   0  0  0  0  0  3  0  0  0  0  0  0
   10.1510    9.9390   76.5060 C   0  0  0  0  0  3  0  0  0  0  0  0
   10.6290    5.7670   77.9980 C   0  0  0  0  0  2  0  0  0  0  0  0
    9.1150   11.0190   76.4770 C   0  0  0  0  0  3  0  0  0  0  0  0
    9.5060   11.7800   75.2160 C   0  0  0  0  0  3  0  0  0  0  0  0
   10.5520    8.1400   78.1750 C   0  0  0  0  0  3  0  0  0  0  0  0
   11.0170   11.6070   75.1610 C   0  0  0  0  0  3  0  0  0  0  0  0
   10.8090    8.0580   79.4900 C   0  0  0  0  0  3  0  0  0  0  0  0
   11.7650   12.8920   75.5360 C   0  0  0  0  0  2  0  0  0  0  0  0
   10.9790    6.8640   80.0700 C   0  0  0  0  0  3  0  0  0  0  0  0
   10.6170   10.1460   78.9800 C   0  0  0  0  0  2  0  0  0  0  0  0
   13.2280   12.4130   71.0270 C   0  0  0  0  0  3  0  0  0  0  0  0
   12.1910   12.8630   72.0750 C   0  0  0  0  0  2  0  0  0  0  0  0
   11.8000   13.8910   74.3700 C   0  0  0  0  0  3  0  0  0  0  0  0
   12.1020   15.2830   74.9480 C   0  0  0  0  0  2  0  0  0  0  0  0
   12.8610   13.4990   73.3170 C   0  0  0  0  0  2  0  0  0  0  0  0
   14.2020   11.4570   71.5850 N   0  0  0  0  0  1  0  0  0  0  0  0
   10.8970    5.7210   79.3700 N   0  0  0  0  0  2  0  0  0  0  0  0
   10.4550    7.0320   77.4160 N   0  0  0  0  0  2  0  0  0  0  0  0
   11.2360    6.8630   81.3820 N   0  0  0  0  0  1  0  0  0  0  0  0
   10.8480    9.3000   79.9800 N   0  0  0  0  0  2  0  0  0  0  0  0
   10.4330    9.4270   77.8690 N   0  0  0  0  0  0  0  0  0  0  0  0
   13.3570   15.3260   75.7100 N   0  0  0  0  0  1  0  0  0  0  0  0
   15.1720   13.7710   70.7510 O   0  0  0  0  0  1  0  0  0  0  0  0
    7.8070   10.4270   76.3510 O   0  0  0  0  0  1  0  0  0  0  0  0
    8.9690   11.1720   74.0210 O   0  0  0  0  0  1  0  0  0  0  0  0
   11.3520   10.5950   76.1290 O   0  0  0  0  0  0  0  0  0  0  0  0
   13.3380   14.3490   69.6280 O   0  0  0  0  0  1  0  0  0  0  0  0
  1 12  1  0
  1 24  1  0
  1 28  1  0
  2  4  1  0
  2 22  1  0
  2 27  1  0
  3 18  1  0
  3 19  1  0
  4  5  1  0
  4 25  1  0
  5  7  1  0
  5 26  1  0
  6  8  1  0
  6 19  1  0
  6 22  1  0
  7  9  1  0
  7 27  1  0
  8 10  1  0
  8 21  1  0
  9 14  1  0
 10 18  1  0
 10 20  1  0
 11 21  1  0
 11 22  1  0
 12 13  1  0
 12 17  1  0
 13 16  1  0
 14 15  1  0
 14 16  1  0
 15 23  1  0
M  END
$$$$
