5dwq_B_SFG_501
     RDKit          3D

 27 29  0  0  0  0  0  0  0  0999 V2000
  -14.2050   35.3360   70.7760 C   0  0  0  0  0  3  0  0  0  0  0  0
  -10.5660   38.7920   77.1750 C   0  0  0  0  0  3  0  0  0  0  0  0
  -10.9000   42.9180   78.8410 C   0  0  0  0  0  2  0  0  0  0  0  0
   -9.5070   37.7190   77.0000 C   0  0  0  0  0  3  0  0  0  0  0  0
  -10.0410   36.9220   75.8230 C   0  0  0  0  0  3  0  0  0  0  0  0
  -10.8240   40.5660   78.8890 C   0  0  0  0  0  3  0  0  0  0  0  0
  -11.5350   37.2000   75.7830 C   0  0  0  0  0  3  0  0  0  0  0  0
  -10.9930   40.5910   80.3450 C   0  0  0  0  0  3  0  0  0  0  0  0
  -12.4010   35.9870   76.0940 C   0  0  0  0  0  2  0  0  0  0  0  0
  -11.1150   41.9190   80.9810 C   0  0  0  0  0  3  0  0  0  0  0  0
  -10.8400   38.5300   79.6720 C   0  0  0  0  0  2  0  0  0  0  0  0
  -13.4380   36.4770   71.3870 C   0  0  0  0  0  3  0  0  0  0  0  0
  -12.5790   35.9620   72.5400 C   0  0  0  0  0  2  0  0  0  0  0  0
  -12.5420   35.0580   74.8980 C   0  0  0  0  0  3  0  0  0  0  0  0
  -13.4010   35.6760   73.7960 C   0  0  0  0  0  2  0  0  0  0  0  0
  -14.3370   37.5250   71.8440 N   0  0  0  0  0  1  0  0  0  0  0  0
  -11.0610   43.0090   80.1790 N   0  0  0  0  0  2  0  0  0  0  0  0
  -10.7850   41.7370   78.2020 N   0  0  0  0  0  2  0  0  0  0  0  0
  -11.2700   42.0200   82.3220 N   0  0  0  0  0  1  0  0  0  0  0  0
  -10.9970   39.3160   80.7610 N   0  0  0  0  0  2  0  0  0  0  0  0
  -10.7300   39.2810   78.5610 N   0  0  0  0  0  0  0  0  0  0  0  0
  -13.1970   33.8590   75.3550 N   0  0  0  0  0  1  0  0  0  0  0  0
  -13.6000   34.5790   69.9850 O   0  0  0  0  0  1  0  0  0  0  0  0
   -8.2110   38.2800   76.7610 O   0  0  0  0  0  1  0  0  0  0  0  0
   -9.4330   37.3400   74.5980 O   0  0  0  0  0  1  0  0  0  0  0  0
  -11.7910   38.1940   76.7670 O   0  0  0  0  0  0  0  0  0  0  0  0
  -15.4080   35.1710   71.0770 O   0  0  0  0  0  1  0  0  0  0  0  0
  1 12  1  0
  1 23  1  0
  1 27  1  0
  2  4  1  0
  2 21  1  0
  2 26  1  0
  3 17  1  0
  3 18  1  0
  4  5  1  0
  4 24  1  0
  5  7  1  0
  5 25  1  0
  6  8  1  0
  6 18  1  0
  6 21  1  0
  7  9  1  0
  7 26  1  0
  8 10  1  0
  8 20  1  0
  9 14  1  0
 10 17  1  0
 10 19  1  0
 11 20  1  0
 11 21  1  0
 12 13  1  0
 12 16  1  0
 13 15  1  0
 14 15  1  0
 14 22  1  0
M  END
$$$$
