5dwq_C_SFG_501
     RDKit          3D

 27 29  0  0  0  0  0  0  0  0999 V2000
  -14.8330   14.9340   14.1580 C   0  0  0  0  0  3  0  0  0  0  0  0
  -13.4390   22.8830   12.8730 C   0  0  0  0  0  3  0  0  0  0  0  0
  -15.4390   25.6530   10.0270 C   0  0  0  0  0  2  0  0  0  0  0  0
  -12.0480   22.6440   13.4330 C   0  0  0  0  0  3  0  0  0  0  0  0
  -12.0800   21.1510   13.7160 C   0  0  0  0  0  3  0  0  0  0  0  0
  -14.5460   24.9520   12.0870 C   0  0  0  0  0  3  0  0  0  0  0  0
  -13.5470   20.8070   13.9230 C   0  0  0  0  0  3  0  0  0  0  0  0
  -14.9230   26.2360   12.6890 C   0  0  0  0  0  3  0  0  0  0  0  0
  -13.8860   20.4160   15.3600 C   0  0  0  0  0  2  0  0  0  0  0  0
  -15.5970   27.2130   11.8040 C   0  0  0  0  0  3  0  0  0  0  0  0
  -13.9570   24.9840   14.1850 C   0  0  0  0  0  2  0  0  0  0  0  0
  -14.6570   16.0970   13.2230 C   0  0  0  0  0  3  0  0  0  0  0  0
  -13.7750   17.1670   13.8690 C   0  0  0  0  0  2  0  0  0  0  0  0
  -13.5210   18.9590   15.6350 C   0  0  0  0  0  3  0  0  0  0  0  0
  -14.4890   17.9990   14.9380 C   0  0  0  0  0  2  0  0  0  0  0  0
  -15.9500   16.6480   12.8550 N   0  0  0  0  0  1  0  0  0  0  0  0
  -15.8150   26.8540   10.5170 N   0  0  0  0  0  2  0  0  0  0  0  0
  -14.8220   24.7210   10.7800 N   0  0  0  0  0  2  0  0  0  0  0  0
  -15.9810   28.4210   12.2720 N   0  0  0  0  0  1  0  0  0  0  0  0
  -14.5340   26.1920   13.9760 N   0  0  0  0  0  2  0  0  0  0  0  0
  -13.9590   24.2560   13.0540 N   0  0  0  0  0  0  0  0  0  0  0  0
  -13.5630   18.7380   17.0650 N   0  0  0  0  0  1  0  0  0  0  0  0
  -13.9650   14.0350   14.1630 O   0  0  0  0  0  1  0  0  0  0  0  0
  -11.0330   23.0200   12.4950 O   0  0  0  0  0  1  0  0  0  0  0  0
  -11.5790   20.3940   12.6090 O   0  0  0  0  0  1  0  0  0  0  0  0
  -14.2910   21.9630   13.5530 O   0  0  0  0  0  0  0  0  0  0  0  0
  -15.8370   14.9040   14.9060 O   0  0  0  0  0  1  0  0  0  0  0  0
  1 12  1  0
  1 23  1  0
  1 27  1  0
  2  4  1  0
  2 21  1  0
  2 26  1  0
  3 17  1  0
  3 18  1  0
  4  5  1  0
  4 24  1  0
  5  7  1  0
  5 25  1  0
  6  8  1  0
  6 18  1  0
  6 21  1  0
  7  9  1  0
  7 26  1  0
  8 10  1  0
  8 20  1  0
  9 14  1  0
 10 17  1  0
 10 19  1  0
 11 20  1  0
 11 21  1  0
 12 13  1  0
 12 16  1  0
 13 15  1  0
 14 15  1  0
 14 22  1  0
M  END
$$$$
