5dx0_B_SFG_501
     RDKit          3D

 27 29  0  0  0  0  0  0  0  0999 V2000
   15.6470   34.8940   33.5540 C   0  0  0  0  0  3  0  0  0  0  0  0
   12.1450   38.5810   27.2440 C   0  0  0  0  0  3  0  0  0  0  0  0
   12.7230   42.6690   25.6020 C   0  0  0  0  0  2  0  0  0  0  0  0
   11.0970   37.5210   27.3900 C   0  0  0  0  0  3  0  0  0  0  0  0
   11.5880   36.7470   28.5930 C   0  0  0  0  0  3  0  0  0  0  0  0
   12.5350   40.3200   25.5400 C   0  0  0  0  0  3  0  0  0  0  0  0
   13.0920   36.9610   28.6170 C   0  0  0  0  0  3  0  0  0  0  0  0
   12.7420   40.3450   24.0970 C   0  0  0  0  0  3  0  0  0  0  0  0
   13.9230   35.7320   28.2970 C   0  0  0  0  0  2  0  0  0  0  0  0
   12.9670   41.6730   23.4770 C   0  0  0  0  0  3  0  0  0  0  0  0
   12.4790   38.2780   24.7610 C   0  0  0  0  0  2  0  0  0  0  0  0
   15.0240   36.1190   32.9530 C   0  0  0  0  0  3  0  0  0  0  0  0
   14.0370   35.7680   31.8370 C   0  0  0  0  0  2  0  0  0  0  0  0
   13.8890   34.7310   29.4590 C   0  0  0  0  0  3  0  0  0  0  0  0
   14.7470   35.0640   30.6780 C   0  0  0  0  0  2  0  0  0  0  0  0
   16.1340   36.9230   32.4610 N   0  0  0  0  0  1  0  0  0  0  0  0
   12.9410   42.7590   24.2750 N   0  0  0  0  0  2  0  0  0  0  0  0
   12.5240   41.4890   26.2350 N   0  0  0  0  0  2  0  0  0  0  0  0
   13.1720   41.7960   22.1500 N   0  0  0  0  0  1  0  0  0  0  0  0
   12.6980   39.0580   23.6800 N   0  0  0  0  0  2  0  0  0  0  0  0
   12.3780   39.0380   25.8630 N   0  0  0  0  0  0  0  0  0  0  0  0
   14.4880   33.5760   28.9170 N   0  0  0  0  0  1  0  0  0  0  0  0
   14.9890   34.2000   34.3700 O   0  0  0  0  0  1  0  0  0  0  0  0
    9.7850   38.0650   27.5470 O   0  0  0  0  0  1  0  0  0  0  0  0
   11.0400   37.3110   29.7880 O   0  0  0  0  0  1  0  0  0  0  0  0
   13.3630   37.9700   27.6580 O   0  0  0  0  0  0  0  0  0  0  0  0
   16.8420   34.6300   33.2340 O   0  0  0  0  0  1  0  0  0  0  0  0
  1 12  1  0
  1 23  1  0
  1 27  1  0
  2  4  1  0
  2 21  1  0
  2 26  1  0
  3 17  1  0
  3 18  1  0
  4  5  1  0
  4 24  1  0
  5  7  1  0
  5 25  1  0
  6  8  1  0
  6 18  1  0
  6 21  1  0
  7  9  1  0
  7 26  1  0
  8 10  1  0
  8 20  1  0
  9 14  1  0
 10 17  1  0
 10 19  1  0
 11 20  1  0
 11 21  1  0
 12 13  1  0
 12 16  1  0
 13 15  1  0
 14 15  1  0
 14 22  1  0
M  END
$$$$
