5dx1_D_SFG_501
     RDKit          3D

 27 29  0  0  0  0  0  0  0  0999 V2000
  -13.8860   35.5260   71.0600 C   0  0  0  0  0  3  0  0  0  0  0  0
  -10.0480   39.0080   77.4610 C   0  0  0  0  0  3  0  0  0  0  0  0
  -10.4060   43.1050   79.1520 C   0  0  0  0  0  2  0  0  0  0  0  0
   -9.0680   37.8800   77.2490 C   0  0  0  0  0  3  0  0  0  0  0  0
   -9.6100   37.1820   76.0100 C   0  0  0  0  0  3  0  0  0  0  0  0
  -10.3080   40.7640   79.1800 C   0  0  0  0  0  3  0  0  0  0  0  0
  -11.1150   37.4690   76.0720 C   0  0  0  0  0  3  0  0  0  0  0  0
  -10.5070   40.7660   80.6260 C   0  0  0  0  0  3  0  0  0  0  0  0
  -11.9950   36.2740   76.3620 C   0  0  0  0  0  2  0  0  0  0  0  0
  -10.6570   42.0660   81.2630 C   0  0  0  0  0  3  0  0  0  0  0  0
  -10.3370   38.7360   79.9430 C   0  0  0  0  0  2  0  0  0  0  0  0
  -13.1600   36.7120   71.6340 C   0  0  0  0  0  3  0  0  0  0  0  0
  -12.2380   36.2620   72.7860 C   0  0  0  0  0  2  0  0  0  0  0  0
  -12.1040   35.3470   75.1590 C   0  0  0  0  0  3  0  0  0  0  0  0
  -13.0030   35.8820   74.0430 C   0  0  0  0  0  2  0  0  0  0  0  0
  -14.1210   37.7270   72.0360 N   0  0  0  0  0  1  0  0  0  0  0  0
  -10.5970   43.1600   80.4770 N   0  0  0  0  0  2  0  0  0  0  0  0
  -10.2750   41.9370   78.4960 N   0  0  0  0  0  2  0  0  0  0  0  0
  -10.8220   42.1330   82.5960 N   0  0  0  0  0  1  0  0  0  0  0  0
  -10.5090   39.5020   81.0320 N   0  0  0  0  0  2  0  0  0  0  0  0
  -10.2040   39.4910   78.8520 N   0  0  0  0  0  0  0  0  0  0  0  0
  -12.6940   34.1230   75.6450 N   0  0  0  0  0  1  0  0  0  0  0  0
  -15.0830   35.3100   71.3940 O   0  0  0  0  0  1  0  0  0  0  0  0
   -7.7450   38.3740   77.1420 O   0  0  0  0  0  1  0  0  0  0  0  0
   -9.0370   37.6850   74.7760 O   0  0  0  0  0  1  0  0  0  0  0  0
  -11.3070   38.4470   77.1040 O   0  0  0  0  0  0  0  0  0  0  0  0
  -13.2640   34.7920   70.2450 O   0  0  0  0  0  1  0  0  0  0  0  0
  1 12  1  0
  1 23  1  0
  1 27  1  0
  2  4  1  0
  2 21  1  0
  2 26  1  0
  3 17  1  0
  3 18  1  0
  4  5  1  0
  4 24  1  0
  5  7  1  0
  5 25  1  0
  6  8  1  0
  6 18  1  0
  6 21  1  0
  7  9  1  0
  7 26  1  0
  8 10  1  0
  8 20  1  0
  9 14  1  0
 10 17  1  0
 10 19  1  0
 11 20  1  0
 11 21  1  0
 12 13  1  0
 12 16  1  0
 13 15  1  0
 14 15  1  0
 14 22  1  0
M  END
$$$$
