5dx8_B_SFG_501
     RDKit          3D

 27 29  0  0  0  0  0  0  0  0999 V2000
   16.4080   34.5070   33.1600 C   0  0  0  0  0  3  0  0  0  0  0  0
   12.6460   37.9140   26.7340 C   0  0  0  0  0  3  0  0  0  0  0  0
   13.1940   41.8980   24.9330 C   0  0  0  0  0  2  0  0  0  0  0  0
   11.4840   36.9920   26.9470 C   0  0  0  0  0  3  0  0  0  0  0  0
   11.9400   36.2490   28.1840 C   0  0  0  0  0  3  0  0  0  0  0  0
   12.9690   39.6000   24.9620 C   0  0  0  0  0  3  0  0  0  0  0  0
   13.4710   36.2700   28.1650 C   0  0  0  0  0  3  0  0  0  0  0  0
   13.1120   39.5660   23.5020 C   0  0  0  0  0  3  0  0  0  0  0  0
   14.2080   34.9470   27.9490 C   0  0  0  0  0  2  0  0  0  0  0  0
   13.2740   40.8370   22.8110 C   0  0  0  0  0  3  0  0  0  0  0  0
   12.8510   37.5660   24.2630 C   0  0  0  0  0  2  0  0  0  0  0  0
   15.7570   35.7200   32.5520 C   0  0  0  0  0  3  0  0  0  0  0  0
   14.8250   35.3280   31.4150 C   0  0  0  0  0  2  0  0  0  0  0  0
   14.5010   34.1290   29.2170 C   0  0  0  0  0  3  0  0  0  0  0  0
   15.5140   34.8090   30.1580 C   0  0  0  0  0  2  0  0  0  0  0  0
   16.7530   36.6710   32.0920 N   0  0  0  0  0  1  0  0  0  0  0  0
   13.3130   41.9290   23.5920 N   0  0  0  0  0  2  0  0  0  0  0  0
   13.0020   40.7750   25.6240 N   0  0  0  0  0  2  0  0  0  0  0  0
   13.4090   40.9080   21.4580 N   0  0  0  0  0  1  0  0  0  0  0  0
   13.0540   38.2800   23.1440 N   0  0  0  0  0  2  0  0  0  0  0  0
   12.7990   38.3430   25.3360 N   0  0  0  0  0  0  0  0  0  0  0  0
   15.0970   32.8560   28.8050 N   0  0  0  0  0  1  0  0  0  0  0  0
   17.6190   34.2130   32.9280 O   0  0  0  0  0  1  0  0  0  0  0  0
   10.2060   37.6930   27.0150 O   0  0  0  0  0  1  0  0  0  0  0  0
   11.4650   36.9000   29.3550 O   0  0  0  0  0  1  0  0  0  0  0  0
   13.7900   37.1600   27.1050 O   0  0  0  0  0  0  0  0  0  0  0  0
   15.7000   33.8120   33.9100 O   0  0  0  0  0  1  0  0  0  0  0  0
  1 12  1  0
  1 23  1  0
  1 27  1  0
  2  4  1  0
  2 21  1  0
  2 26  1  0
  3 17  1  0
  3 18  1  0
  4  5  1  0
  4 24  1  0
  5  7  1  0
  5 25  1  0
  6  8  1  0
  6 18  1  0
  6 21  1  0
  7  9  1  0
  7 26  1  0
  8 10  1  0
  8 20  1  0
  9 14  1  0
 10 17  1  0
 10 19  1  0
 11 20  1  0
 11 21  1  0
 12 13  1  0
 12 16  1  0
 13 15  1  0
 14 15  1  0
 14 22  1  0
M  END
$$$$
