5ih3_C_DXE_508
     RDKit          3D

 16 15  0  0  0  0  0  0  0  0999 V2000
   33.3150   30.3830  183.1290 C   0  0  0  0  0  0  0  0  0  0  0  0
   31.0120   30.0950  182.7240 C   0  0  0  0  0  0  0  0  0  0  0  0
   30.0900   30.0750  181.5060 C   0  0  0  0  0  0  0  0  0  0  0  0
   28.7620   28.3980  180.3880 C   0  0  0  0  0  0  0  0  0  0  0  0
   33.4690   29.4720  182.8340 H   0  0  0  0  0  0  0  0  0  0  0  0
   34.0740   30.9340  182.8840 H   0  0  0  0  0  0  0  0  0  0  0  0
   33.2020   30.3970  184.0920 H   0  0  0  0  0  0  0  0  0  0  0  0
   31.2890   29.1880  182.9230 H   0  0  0  0  0  0  0  0  0  0  0  0
   30.5220   30.4480  183.4830 H   0  0  0  0  0  0  0  0  0  0  0  0
   30.6170   30.0690  180.6920 H   0  0  0  0  0  0  0  0  0  0  0  0
   29.5090   30.8510  181.5180 H   0  0  0  0  0  0  0  0  0  0  0  0
   29.4640   28.2940  179.7270 H   0  0  0  0  0  0  0  0  0  0  0  0
   28.3450   27.5380  180.5550 H   0  0  0  0  0  0  0  0  0  0  0  0
   28.0970   29.0220  180.0580 H   0  0  0  0  0  0  0  0  0  0  0  0
   32.1550   30.8840  182.5140 O   0  0  0  0  0  0  0  0  0  0  0  0
   29.3150   28.8920  181.5860 O   0  0  0  0  0  0  0  0  0  0  0  0
  1  5  1  0
  1  6  1  0
  1  7  1  0
  1 15  1  0
  2  3  1  0
  2  8  1  0
  2  9  1  0
  2 15  1  0
  3 10  1  0
  3 11  1  0
  3 16  1  0
  4 12  1  0
  4 13  1  0
  4 14  1  0
  4 16  1  0
M  END
$$$$
