5ih3_B_PE8_506
     RDKit          3D

 59 58  0  0  0  0  0  0  0  0999 V2000
   17.1240   35.0930  106.3400 C   0  0  0  0  0  0  0  0  0  0  0  0
   17.4830   36.3720  107.0920 C   0  0  0  0  0  0  0  0  0  0  0  0
   19.3140   37.4950  107.9870 C   0  0  0  0  0  0  0  0  0  0  0  0
   20.5590   38.2660  107.5330 C   0  0  0  0  0  0  0  0  0  0  0  0
   22.8750   38.0370  107.3260 C   0  0  0  0  0  0  0  0  0  0  0  0
   23.9760   37.0120  107.0580 C   0  0  0  0  0  0  0  0  0  0  0  0
    9.5600   32.5070  105.2110 C   0  0  0  0  0  0  0  0  0  0  0  0
   24.6240   35.2880  105.6030 C   0  0  0  0  0  0  0  0  0  0  0  0
   24.1410   34.5560  104.3530 C   0  0  0  0  0  0  0  0  0  0  0  0
   23.1820   32.3600  104.1400 C   0  0  0  0  0  0  0  0  0  0  0  0
   23.7230   31.3500  105.1600 C   0  0  0  0  0  0  0  0  0  0  0  0
    9.8510   33.2730  106.5020 C   0  0  0  0  0  0  0  0  0  0  0  0
   11.8620   34.3640  105.7710 C   0  0  0  0  0  0  0  0  0  0  0  0
   13.0050   33.6030  105.0970 C   0  0  0  0  0  0  0  0  0  0  0  0
   15.2370   33.9540  104.4120 C   0  0  0  0  0  0  0  0  0  0  0  0
   16.2030   35.1070  104.0670 C   0  0  0  0  0  0  0  0  0  0  0  0
   16.1970   34.8680  106.5190 H   0  0  0  0  0  0  0  0  0  0  0  0
   17.6930   34.3710  106.6500 H   0  0  0  0  0  0  0  0  0  0  0  0
   16.9510   37.1040  106.7430 H   0  0  0  0  0  0  0  0  0  0  0  0
   17.2810   36.2530  108.0330 H   0  0  0  0  0  0  0  0  0  0  0  0
   19.5410   36.9400  108.7500 H   0  0  0  0  0  0  0  0  0  0  0  0
   18.6220   38.1250  108.2430 H   0  0  0  0  0  0  0  0  0  0  0  0
   20.3960   38.6600  106.6620 H   0  0  0  0  0  0  0  0  0  0  0  0
   20.7570   38.9680  108.1730 H   0  0  0  0  0  0  0  0  0  0  0  0
   23.0730   38.5150  108.1460 H   0  0  0  0  0  0  0  0  0  0  0  0
   22.8340   38.6660  106.5880 H   0  0  0  0  0  0  0  0  0  0  0  0
   24.8060   37.4760  106.8670 H   0  0  0  0  0  0  0  0  0  0  0  0
   24.0930   36.4540  107.8430 H   0  0  0  0  0  0  0  0  0  0  0  0
   25.4520   35.7550  105.4120 H   0  0  0  0  0  0  0  0  0  0  0  0
   24.7620   34.6540  106.3230 H   0  0  0  0  0  0  0  0  0  0  0  0
    9.3560   33.1340  104.5000 H   0  0  0  0  0  0  0  0  0  0  0  0
   24.8800   34.0720  103.9530 H   0  0  0  0  0  0  0  0  0  0  0  0
   23.7880   35.1970  103.7160 H   0  0  0  0  0  0  0  0  0  0  0  0
   10.3340   31.9770  104.9660 H   0  0  0  0  0  0  0  0  0  0  0  0
   22.2910   32.0930  103.8640 H   0  0  0  0  0  0  0  0  0  0  0  0
   23.7670   32.3800  103.3660 H   0  0  0  0  0  0  0  0  0  0  0  0
   23.0870   30.6250  105.2590 H   0  0  0  0  0  0  0  0  0  0  0  0
   23.8390   31.7920  106.0160 H   0  0  0  0  0  0  0  0  0  0  0  0
   24.8360   30.0760  104.3580 H   0  0  0  0  0  0  0  0  0  0  0  0
    9.5140   32.7690  107.2590 H   0  0  0  0  0  0  0  0  0  0  0  0
    9.4120   34.1380  106.4700 H   0  0  0  0  0  0  0  0  0  0  0  0
   12.2140   35.1180  106.2700 H   0  0  0  0  0  0  0  0  0  0  0  0
   11.2300   34.6720  105.1040 H   0  0  0  0  0  0  0  0  0  0  0  0
   13.4400   33.0350  105.7530 H   0  0  0  0  0  0  0  0  0  0  0  0
   12.6450   33.0500  104.3860 H   0  0  0  0  0  0  0  0  0  0  0  0
   15.5120   33.5340  105.2410 H   0  0  0  0  0  0  0  0  0  0  0  0
   15.2390   33.3000  103.6960 H   0  0  0  0  0  0  0  0  0  0  0  0
   15.6990   35.9360  104.0630 H   0  0  0  0  0  0  0  0  0  0  0  0
   16.5500   34.9560  103.1740 H   0  0  0  0  0  0  0  0  0  0  0  0
    8.4380   31.0650  104.8200 H   0  0  0  0  0  0  0  0  0  0  0  0
    8.4580   31.6630  105.4240 O   0  0  0  0  0  0  0  0  0  0  0  0
   17.3000   35.2580  104.9510 O   0  0  0  0  0  0  0  0  0  0  0  0
   18.8410   36.6830  106.9490 O   0  0  0  0  0  0  0  0  0  0  0  0
   21.6450   37.3900  107.4520 O   0  0  0  0  0  0  0  0  0  0  0  0
   23.6330   36.2080  105.9640 O   0  0  0  0  0  0  0  0  0  0  0  0
   23.1270   33.6510  104.7230 O   0  0  0  0  0  0  0  0  0  0  0  0
   24.9600   30.8270  104.7370 O   0  0  0  0  0  0  0  0  0  0  0  0
   11.2370   33.4590  106.6450 O   0  0  0  0  0  0  0  0  0  0  0  0
   13.9470   34.4910  104.5590 O   0  0  0  0  0  0  0  0  0  0  0  0
  1  2  1  0
  1 17  1  0
  1 18  1  0
  1 52  1  0
  2 19  1  0
  2 20  1  0
  2 53  1  0
  3  4  1  0
  3 21  1  0
  3 22  1  0
  3 53  1  0
  4 23  1  0
  4 24  1  0
  4 54  1  0
  5  6  1  0
  5 25  1  0
  5 26  1  0
  5 54  1  0
  6 27  1  0
  6 28  1  0
  6 55  1  0
  7 12  1  0
  7 31  1  0
  7 34  1  0
  7 51  1  0
  8  9  1  0
  8 29  1  0
  8 30  1  0
  8 55  1  0
  9 32  1  0
  9 33  1  0
  9 56  1  0
 10 11  1  0
 10 35  1  0
 10 36  1  0
 10 56  1  0
 11 37  1  0
 11 38  1  0
 11 57  1  0
 12 40  1  0
 12 41  1  0
 12 58  1  0
 13 14  1  0
 13 42  1  0
 13 43  1  0
 13 58  1  0
 14 44  1  0
 14 45  1  0
 14 59  1  0
 15 16  1  0
 15 46  1  0
 15 47  1  0
 15 59  1  0
 16 48  1  0
 16 49  1  0
 16 52  1  0
 39 57  1  0
 50 51  1  0
M  END
$$$$
