5is6_D_SFG_504
     RDKit          3D

 50 67  0  0  0  0  0  0  0  0999 V2000
   52.8360   14.1470  192.1460 C   0  0  0  0  0  0  0  0  0  0  0  0
   51.9100   22.1370  193.8270 C   0  0  0  0  0  0  0  0  0  0  0  0
   54.1520   24.7060  196.6160 C   0  0  0  0  0  3  0  0  0  0  0  0
   50.5320   22.0230  193.1780 C   0  0  0  0  0  0  0  0  0  0  0  0
   50.4750   20.5100  192.8510 C   0  0  0  0  0  0  0  0  0  0  0  0
   53.2000   24.1580  194.6980 C   0  0  0  0  0  3  0  0  0  0  0  0
   51.9520   20.1140  192.6670 C   0  0  0  0  0  0  0  0  0  0  0  0
   53.6990   25.2880  194.0630 C   0  0  0  0  0  3  0  0  0  0  0  0
   52.3750   19.7160  191.2700 C   0  0  0  0  0  5  0  0  0  0  0  0
   54.4620   26.1730  194.8480 C   0  0  0  0  0  3  0  0  0  0  0  0
   52.6560   24.1980  192.5770 C   0  0  0  0  0  3  0  0  0  0  0  0
   52.7990   15.3020  193.1440 C   0  0  0  0  0  6  0  0  0  0  0  0
   51.9890   16.4630  192.5580 C   0  0  0  0  0  6  0  0  0  0  0  0
   51.9300   18.3450  190.7680 C   0  0  0  0  0  6  0  0  0  0  0  0
   52.6920   17.1690  191.3920 C   0  0  0  0  0  0  0  0  0  0  0  0
   51.9160   21.8320  194.8730 H   0  0  0  0  0  0  0  0  0  0  0  0
   54.4040   24.4990  197.6550 H   0  0  0  0  0  0  0  0  0  0  0  0
   50.5190   22.5750  192.2400 H   0  0  0  0  0  0  0  0  0  0  0  0
   49.8780   20.3240  191.9590 H   0  0  0  0  0  0  0  0  0  0  0  0
   52.1930   19.3400  193.3950 H   0  0  0  0  0  0  0  0  0  0  0  0
   53.4590   19.7870  191.1920 H   0  0  0  0  0  2  0  0  0  0  0  0
   52.0260   20.4870  190.5840 H   0  0  0  0  0  0  0  0  0  0  0  0
   52.2200   23.8860  191.6290 H   0  0  0  0  0  0  0  0  0  0  0  0
   52.3440   14.9530  194.0700 H   0  0  0  0  0  0  0  0  0  0  0  0
   51.0000   16.1200  192.2580 H   0  0  0  0  0  0  0  0  0  0  0  0
   51.7900   17.1630  193.3690 H   0  0  0  0  0  0  0  0  0  0  0  0
   50.8600   18.2180  190.9210 H   0  0  0  0  0  0  0  0  0  0  0  0
   53.6740   17.4980  191.7270 Hg  0  0  0  0  0 10  0  0  0  0  0  0
   52.9190   16.4530  190.6030 Hg  0  0  0  0  0  8  0  0  0  0  0  0
   54.6850   15.9240  192.5620 H   0  0  0  0  0  2  0  0  0  0  0  0
   54.6900   14.9490  193.8690 H   0  0  0  0  0  0  0  0  0  0  0  0
   54.2260   16.5290  194.0440 H   0  0  0  0  0  0  0  0  0  0  0  0
   54.8290   27.5560  193.3960 H   0  0  0  0  0  0  0  0  0  0  0  0
   55.5270   27.9290  194.9500 H   0  0  0  0  0  0  0  0  0  0  0  0
   53.2160   18.4560  189.0960 H   0  0  0  0  0  0  0  0  0  0  0  0
   51.6450   18.9260  188.7550 H   0  0  0  0  0  0  0  0  0  0  0  0
   49.4930   21.9590  194.8430 H   0  0  0  0  0  0  0  0  0  0  0  0
   50.4850   19.8480  194.7110 H   0  0  0  0  0  0  0  0  0  0  0  0
   54.1990   15.7210  193.4300 N   0  0  0  0  0  5  0  0  0  0  0  0
   54.6830   25.8440  196.1410 N   0  0  0  0  0  2  0  0  0  0  0  0
   53.3690   23.8170  195.9830 N   0  0  0  0  0  2  0  0  0  0  0  0
   54.9800   27.3040  194.3670 N   0  0  0  0  0  0  0  0  0  0  0  0
   53.3450   25.3050  192.7270 N   0  0  0  0  0  2  0  0  0  0  0  0
   52.5280   23.4560  193.7210 N   0  0  0  0  0  0  0  0  0  0  0  0
   52.2350   18.3300  189.3270 N   0  0  0  0  0  5  0  0  0  0  0  0
   51.8210   13.4310  192.0630 O   0  0  0  0  0  1  0  0  0  0  0  0
   49.4780   22.5080  194.0160 O   0  0  0  0  0  0  0  0  0  0  0  0
   49.9760   19.6660  193.8780 O   0  0  0  0  0  0  0  0  0  0  0  0
   52.7250   21.2560  193.0840 O   0  0  0  0  0  0  0  0  0  0  0  0
   53.9030   14.0240  191.4750 O   0  0  0  0  0  0  0  0  0  0  0  0
  1 12  1  0
  1 29  1  0
  1 46  1  0
  1 50  1  0
  2  4  1  0
  2 16  1  0
  2 44  1  0
  2 49  1  0
  3 17  1  0
  3 40  1  0
  3 41  1  0
  4  5  1  0
  4 18  1  0
  4 47  1  0
  5  7  1  0
  5 19  1  0
  5 48  1  0
  6  8  1  0
  6 41  1  0
  6 44  1  0
  7  9  1  0
  7 20  1  0
  7 49  1  0
  8 10  1  0
  8 43  1  0
  9 14  1  0
  9 21  1  0
  9 22  1  0
  9 28  1  0
 10 40  1  0
 10 42  1  0
 11 23  1  0
 11 43  1  0
 11 44  1  0
 12 13  1  0
 12 24  1  0
 12 28  1  0
 12 29  1  0
 12 39  1  0
 13 15  1  0
 13 25  1  0
 13 26  1  0
 13 28  1  0
 13 29  1  0
 14 15  1  0
 14 27  1  0
 14 28  1  0
 14 29  1  0
 14 45  1  0
 15 28  1  0
 15 29  1  0
 21 28  1  0
 28 29  1  0
 28 30  1  0
 28 39  1  0
 28 45  1  0
 29 45  1  0
 29 50  1  0
 30 39  1  0
 31 39  1  0
 32 39  1  0
 33 42  1  0
 34 42  1  0
 35 45  1  0
 36 45  1  0
 37 47  1  0
 38 48  1  0
M  END
$$$$
