5is9_D_6D3_501
     RDKit          3D

 71 74  0  0  0  0  0  0  0  0999 V2000
   52.4950   15.0190  193.2720 C   0  0  0  0  0  3  0  0  0  0  0  0
   52.8870   24.3230  193.0180 C   0  0  0  0  0  3  0  0  0  0  0  0
   53.9270   25.4870  194.5480 C   0  0  0  0  0  3  0  0  0  0  0  0
   54.6520   26.3980  195.3710 C   0  0  0  0  0  3  0  0  0  0  0  0
   53.4130   24.3230  195.1460 C   0  0  0  0  0  3  0  0  0  0  0  0
   54.3060   25.0020  197.2100 C   0  0  0  0  0  3  0  0  0  0  0  0
   52.2870   18.5350  189.9420 C   0  0  0  0  0  0  0  0  0  0  0  0
   51.9840   19.6240  188.8890 C   0  0  0  0  0  0  0  0  0  0  0  0
   52.6160   19.3610  187.5130 C   0  0  0  0  0  0  0  0  0  0  0  0
   51.3110   19.7830  185.3770 C   0  0  0  0  0  3  0  0  0  0  0  0
   50.1870   19.1360  184.7260 C   0  0  0  0  0  3  0  0  0  0  0  0
   53.4770   16.1520  193.4090 C   0  0  0  0  0  0  0  0  0  0  0  0
   49.4910   19.5170  183.4080 C   0  0  0  0  0  0  0  0  0  0  0  0
   48.9490   20.9300  183.2840 C   0  0  0  0  0  0  0  0  0  0  0  0
   47.9650   21.2810  184.4250 C   0  0  0  0  0  3  0  0  0  0  0  0
   53.2990   17.1380  192.2470 C   0  0  0  0  0  0  0  0  0  0  0  0
   51.8410   17.6740  192.0720 C   0  0  0  0  0  0  0  0  0  0  0  0
   52.4020   19.9850  191.8150 C   0  0  0  0  0  0  0  0  0  0  0  0
   52.0380   20.3300  193.2510 C   0  0  0  0  0  0  0  0  0  0  0  0
   52.1190   22.3920  194.3380 C   0  0  0  0  0  0  0  0  0  0  0  0
   50.7820   22.2990  193.7120 C   0  0  0  0  0  0  0  0  0  0  0  0
   50.6480   20.8470  193.3930 C   0  0  0  0  0  0  0  0  0  0  0  0
   53.3280   16.6110  194.2510 H   0  0  0  0  0  0  0  0  0  0  0  0
   53.3720   19.8270  191.7750 H   0  0  0  0  0  0  0  0  0  0  0  0
   52.1870   20.7820  191.2350 H   0  0  0  0  0  0  0  0  0  0  0  0
   52.1650   19.5610  193.8180 H   0  0  0  0  0  0  0  0  0  0  0  0
   52.0560   22.1810  195.2940 H   0  0  0  0  0  0  0  0  0  0  0  0
   50.7490   22.8390  192.8850 H   0  0  0  0  0  0  0  0  0  0  0  0
   49.9690   22.4110  195.4070 H   0  0  0  0  0  0  0  0  0  0  0  0
   50.1360   20.7230  192.5160 H   0  0  0  0  0  0  0  0  0  0  0  0
   50.5350   20.1080  195.1650 H   0  0  0  0  0  0  0  0  0  0  0  0
   52.5120   24.0430  192.1440 H   0  0  0  0  0  0  0  0  0  0  0  0
   55.8470   28.0190  195.2970 H   0  0  0  0  0  0  0  0  0  0  0  0
   55.3820   16.3320  193.4190 H   0  0  0  0  0  0  0  0  0  0  0  0
   54.8950   27.8840  194.0310 H   0  0  0  0  0  0  0  0  0  0  0  0
   54.4420   24.8220  198.1710 H   0  0  0  0  0  0  0  0  0  0  0  0
   53.2840   18.4230  190.0150 H   0  0  0  0  0  0  0  0  0  0  0  0
   51.8790   17.6500  189.6220 H   0  0  0  0  0  0  0  0  0  0  0  0
   51.0070   19.6800  188.7740 H   0  0  0  0  0  0  0  0  0  0  0  0
   52.3030   20.4730  189.2190 H   0  0  0  0  0  0  0  0  0  0  0  0
   53.0670   20.1670  187.2480 H   0  0  0  0  0  0  0  0  0  0  0  0
   53.2910   18.5950  187.5570 H   0  0  0  0  0  0  0  0  0  0  0  0
   51.8030   20.6090  185.0580 H   0  0  0  0  0  0  0  0  0  0  0  0
   54.9080   15.1810  192.6150 H   0  0  0  0  0  0  0  0  0  0  0  0
   50.1510   19.3750  182.6580 H   0  0  0  0  0  0  0  0  0  0  0  0
   48.7410   18.8940  183.2730 H   0  0  0  0  0  0  0  0  0  0  0  0
   48.4560   20.9840  182.4420 H   0  0  0  0  0  0  0  0  0  0  0  0
   50.1760   22.2120  184.0710 H   0  0  0  0  0  0  0  0  0  0  0  0
   50.7610   21.4790  182.9000 H   0  0  0  0  0  0  0  0  0  0  0  0
   53.8970   17.9050  192.3870 H   0  0  0  0  0  0  0  0  0  0  0  0
   53.5690   16.6880  191.4060 H   0  0  0  0  0  0  0  0  0  0  0  0
   51.3060   16.9860  191.6830 H   0  0  0  0  0  0  0  0  0  0  0  0
   51.4940   17.8780  192.9300 H   0  0  0  0  0  0  0  0  0  0  0  0
   54.7830   15.6410  193.3780 N   0  0  0  0  0  0  0  0  0  0  0  0
   50.6880   18.0770  186.5570 N   0  0  0  0  0  2  0  0  0  0  0  0
   50.0090   21.8810  183.2230 N   0  0  0  0  0  0  0  0  0  0  0  0
   51.7430   18.8420  191.2650 N   0  0  0  0  0  0  0  0  0  0  0  0
   52.7650   23.6410  194.1580 N   0  0  0  0  0  0  0  0  0  0  0  0
   53.5840   25.4480  193.2330 N   0  0  0  0  0  2  0  0  0  0  0  0
   55.1930   27.5660  194.8390 N   0  0  0  0  0  0  0  0  0  0  0  0
   53.6250   24.1240  196.4750 N   0  0  0  0  0  2  0  0  0  0  0  0
   54.8100   26.1050  196.6860 N   0  0  0  0  0  2  0  0  0  0  0  0
   51.5630   19.0720  186.5090 N   0  0  0  0  0  0  0  0  0  0  0  0
   49.8700   18.0830  185.5200 N   0  0  0  0  0  2  0  0  0  0  0  0
   52.9160   13.8940  192.9070 O   0  0  0  0  0  1  0  0  0  0  0  0
   52.9180   21.4090  193.6670 O   0  0  0  0  0  0  0  0  0  0  0  0
   49.7880   22.7180  194.6170 O   0  0  0  0  0  0  0  0  0  0  0  0
   49.9840   20.1680  194.4570 O   0  0  0  0  0  0  0  0  0  0  0  0
   51.2870   15.2490  193.5300 O   0  0  0  0  0  1  0  0  0  0  0  0
   47.4000   22.4270  184.4110 O   0  0  0  0  0  1  0  0  0  0  0  0
   47.7290   20.4070  185.3520 O   0  0  0  0  0  1  0  0  0  0  0  0
  1 12  1  0
  1 65  1  0
  1 69  1  0
  2 32  1  0
  2 58  1  0
  2 59  1  0
  3  4  1  0
  3  5  1  0
  3 59  1  0
  4 60  1  0
  4 62  1  0
  5 58  1  0
  5 61  1  0
  6 36  1  0
  6 61  1  0
  6 62  1  0
  7  8  1  0
  7 37  1  0
  7 38  1  0
  7 57  1  0
  8  9  1  0
  8 39  1  0
  8 40  1  0
  9 41  1  0
  9 42  1  0
  9 63  1  0
 10 11  1  0
 10 43  1  0
 10 63  1  0
 11 13  1  0
 11 64  1  0
 12 16  1  0
 12 23  1  0
 12 54  1  0
 13 14  1  0
 13 45  1  0
 13 46  1  0
 14 15  1  0
 14 47  1  0
 14 56  1  0
 15 70  1  0
 15 71  1  0
 16 17  1  0
 16 50  1  0
 16 51  1  0
 17 52  1  0
 17 53  1  0
 17 57  1  0
 18 19  1  0
 18 24  1  0
 18 25  1  0
 18 57  1  0
 19 22  1  0
 19 26  1  0
 19 66  1  0
 20 21  1  0
 20 27  1  0
 20 58  1  0
 20 66  1  0
 21 22  1  0
 21 28  1  0
 21 67  1  0
 22 30  1  0
 22 68  1  0
 29 67  1  0
 31 68  1  0
 33 60  1  0
 34 54  1  0
 35 60  1  0
 44 54  1  0
 48 56  1  0
 49 56  1  0
 55 63  1  0
 55 64  1  0
M  END
$$$$
