5isd_D_SAO_502
     RDKit          3D

 46 63  0  0  0  0  0  0  0  0999 V2000
   52.4260   14.1830  191.7080 C   0  0  0  0  0  0  0  0  0  0  0  0
   51.6340   22.2410  193.2650 C   0  0  0  0  0  0  0  0  0  0  0  0
   53.9620   24.7950  195.9480 C   0  0  0  0  0  3  0  0  0  0  0  0
   50.2770   22.1350  192.5760 C   0  0  0  0  0  0  0  0  0  0  0  0
   50.1650   20.6230  192.3630 C   0  0  0  0  0  0  0  0  0  0  0  0
   53.0230   24.2200  194.0510 C   0  0  0  0  0  3  0  0  0  0  0  0
   51.6150   20.2020  192.1150 C   0  0  0  0  0  0  0  0  0  0  0  0
   53.4950   25.3440  193.3890 C   0  0  0  0  0  3  0  0  0  0  0  0
   51.9380   20.0130  190.6450 C   0  0  0  0  0  5  0  0  0  0  0  0
   54.2780   26.2380  194.1680 C   0  0  0  0  0  3  0  0  0  0  0  0
   52.3970   24.2650  191.9470 C   0  0  0  0  0  3  0  0  0  0  0  0
   52.8600   15.4020  192.5300 C   0  0  0  0  0  6  0  0  0  0  0  0
   52.1380   16.6710  192.0700 C   0  0  0  0  0  6  0  0  0  0  0  0
   52.6910   17.2700  190.7840 C   0  0  0  0  0  0  0  0  0  0  0  0
   51.5900   22.0510  194.3360 H   0  0  0  0  0  0  0  0  0  0  0  0
   54.1740   24.6040  196.9990 H   0  0  0  0  0  0  0  0  0  0  0  0
   50.1770   22.7160  191.6600 H   0  0  0  0  0  0  0  0  0  0  0  0
   54.6210   16.5370  192.3980 H   0  0  0  0  0  2  0  0  0  0  0  0
   49.4570   20.3440  191.5840 H   0  0  0  0  0  0  0  0  0  0  0  0
   51.8950   19.3050  192.6670 H   0  0  0  0  0  0  0  0  0  0  0  0
   53.0030   20.1090  190.4360 H   0  0  0  0  0  2  0  0  0  0  0  0
   51.4530   20.7670  190.0280 H   0  0  0  0  0  0  0  0  0  0  0  0
   51.9240   23.9640  191.0130 H   0  0  0  0  0  0  0  0  0  0  0  0
   52.5910   15.1950  193.5650 H   0  0  0  0  0  0  0  0  0  0  0  0
   52.2200   17.4030  192.8720 H   0  0  0  0  0  2  0  0  0  0  0  0
   51.0660   16.4970  191.9870 H   0  0  0  0  0  0  0  0  0  0  0  0
   52.9410   16.5230  190.0320 Hg  0  0  0  0  0  8  0  0  0  0  0  0
   53.6030   17.8390  190.9580 Hg  0  0  0  0  0 10  0  0  0  0  0  0
   54.7560   15.0660  191.6670 H   0  0  0  0  0  0  0  0  0  0  0  0
   54.6730   15.1580  193.3150 H   0  0  0  0  0  0  0  0  0  0  0  0
   54.6750   27.6180  192.7110 H   0  0  0  0  0  0  0  0  0  0  0  0
   55.3720   27.9790  194.2670 H   0  0  0  0  0  0  0  0  0  0  0  0
   49.1210   22.0490  194.2000 H   0  0  0  0  0  0  0  0  0  0  0  0
   50.0250   20.3490  194.3200 H   0  0  0  0  0  0  0  0  0  0  0  0
   54.3370   15.5630  192.4470 N   0  0  0  0  0  6  0  0  0  0  0  0
   54.4920   25.9230  195.4620 N   0  0  0  0  0  2  0  0  0  0  0  0
   53.2140   23.8820  195.3200 N   0  0  0  0  0  2  0  0  0  0  0  0
   54.8160   27.3620  193.6830 N   0  0  0  0  0  0  0  0  0  0  0  0
   53.1020   25.3710  192.0710 N   0  0  0  0  0  2  0  0  0  0  0  0
   52.3090   23.5280  193.0880 N   0  0  0  0  0  0  0  0  0  0  0  0
   53.1590   13.8610  190.7460 O   0  0  0  0  0  0  0  0  0  0  0  0
   49.2450   22.6420  193.4140 O   0  0  0  0  0  0  0  0  0  0  0  0
   49.6340   19.9490  193.5000 O   0  0  0  0  0  0  0  0  0  0  0  0
   52.4440   21.2370  192.6890 O   0  0  0  0  0  0  0  0  0  0  0  0
   51.3810   13.5940  192.0590 O   0  0  0  0  0  1  0  0  0  0  0  0
   51.3900   18.3630  190.1360 S   0  0  0  0  0  4  0  0  0  0  0  0
  1 12  1  0
  1 27  1  0
  1 41  1  0
  1 45  1  0
  2  4  1  0
  2 15  1  0
  2 40  1  0
  2 44  1  0
  3 16  1  0
  3 36  1  0
  3 37  1  0
  4  5  1  0
  4 17  1  0
  4 42  1  0
  5  7  1  0
  5 19  1  0
  5 43  1  0
  6  8  1  0
  6 37  1  0
  6 40  1  0
  7  9  1  0
  7 20  1  0
  7 44  1  0
  8 10  1  0
  8 39  1  0
  9 21  1  0
  9 22  1  0
  9 28  1  0
  9 46  1  0
 10 36  1  0
 10 38  1  0
 11 23  1  0
 11 39  1  0
 11 40  1  0
 12 13  1  0
 12 24  1  0
 12 27  1  0
 12 28  1  0
 12 35  1  0
 13 14  1  0
 13 25  1  0
 13 26  1  0
 13 27  1  0
 13 28  1  0
 14 27  1  0
 14 28  1  0
 14 46  1  0
 18 28  1  0
 18 35  1  0
 21 28  1  0
 25 28  1  0
 27 28  1  0
 27 35  1  0
 27 41  1  0
 27 46  1  0
 28 35  1  0
 28 46  1  0
 29 35  1  0
 30 35  1  0
 31 38  1  0
 32 38  1  0
 33 42  1  0
 34 43  1  0
M  END
$$$$
