5ise_C_DXE_503
     RDKit          3D

 16 15  0  0  0  0  0  0  0  0999 V2000
   24.9330   22.7370  168.8310 C   0  0  0  0  0  0  0  0  0  0  0  0
   24.3320   22.6770  171.1600 C   0  0  0  0  0  0  0  0  0  0  0  0
   23.5760   21.3780  171.4660 C   0  0  0  0  0  0  0  0  0  0  0  0
   24.8810   19.5730  172.3220 C   0  0  0  0  0  0  0  0  0  0  0  0
   25.0430   21.7730  168.8300 H   0  0  0  0  0  0  0  0  0  0  0  0
   24.5860   23.0230  167.9720 H   0  0  0  0  0  0  0  0  0  0  0  0
   25.7910   23.1600  168.9910 H   0  0  0  0  0  0  0  0  0  0  0  0
   25.2860   22.5210  171.2370 H   0  0  0  0  0  0  0  0  0  0  0  0
   24.0650   23.3620  171.7930 H   0  0  0  0  0  0  0  0  0  0  0  0
   23.6270   20.7890  170.6970 H   0  0  0  0  0  0  0  0  0  0  0  0
   22.6460   21.5840  171.6500 H   0  0  0  0  0  0  0  0  0  0  0  0
   25.5620   19.7680  171.6600 H   0  0  0  0  0  0  0  0  0  0  0  0
   25.3040   19.2700  173.1410 H   0  0  0  0  0  0  0  0  0  0  0  0
   24.2920   18.8790  171.9860 H   0  0  0  0  0  0  0  0  0  0  0  0
   24.0300   23.1050  169.8480 O   0  0  0  0  0  0  0  0  0  0  0  0
   24.1360   20.7330  172.5820 O   0  0  0  0  0  0  0  0  0  0  0  0
  1  5  1  0
  1  6  1  0
  1  7  1  0
  1 15  1  0
  2  3  1  0
  2  8  1  0
  2  9  1  0
  2 15  1  0
  3 10  1  0
  3 11  1  0
  3 16  1  0
  4 12  1  0
  4 13  1  0
  4 14  1  0
  4 16  1  0
M  END
$$$$
