5ise_A_6D2_501
     RDKit          3D

 61 82  0  0  0  0  0  0  0  0999 V2000
   53.7810   35.0040  135.6760 C   0  0  0  0  0  0  0  0  0  0  0  0
   49.9520   38.3590  129.3490 C   0  0  0  0  0  0  0  0  0  0  0  0
   51.2720   33.2700  131.2640 C   0  0  0  0  0  6  0  0  0  0  0  0
   52.5590   32.4120  131.1200 C   0  0  0  0  0  6  0  0  0  0  0  0
   52.9170   32.0810  129.6760 C   0  0  0  0  0  0  0  0  0  0  0  0
   52.4050   29.5850  129.9090 C   0  0  0  0  0  3  0  0  0  0  0  0
   50.4780   42.3930  127.6110 C   0  0  0  0  0  3  0  0  0  0  0  0
   48.7730   37.3620  129.5590 C   0  0  0  0  0  0  0  0  0  0  0  0
   49.2480   36.6210  130.7560 C   0  0  0  0  0  0  0  0  0  0  0  0
   50.3270   40.0570  127.5810 C   0  0  0  0  0  3  0  0  0  0  0  0
   50.7100   36.8210  130.9040 C   0  0  0  0  0  0  0  0  0  0  0  0
   50.5390   40.0250  126.2340 C   0  0  0  0  0  3  0  0  0  0  0  0
   51.6410   35.5510  130.7560 C   0  0  0  0  0  5  0  0  0  0  0  0
   50.7230   41.2510  125.5900 C   0  0  0  0  0  3  0  0  0  0  0  0
   50.3030   37.9650  126.9270 C   0  0  0  0  0  3  0  0  0  0  0  0
   53.0880   36.1390  134.9910 C   0  0  0  0  0  6  0  0  0  0  0  0
   51.9970   35.6920  133.9820 C   0  0  0  0  0  6  0  0  0  0  0  0
   52.4690   34.6990  132.9030 C   0  0  0  0  0  0  0  0  0  0  0  0
   53.7850   37.4130  133.7260 H   0  0  0  0  0  0  0  0  0  0  0  0
   49.8510   39.1420  129.9120 H   0  0  0  0  0  0  0  0  0  0  0  0
   50.6610   32.7760  131.8370 H   0  0  0  0  0  0  0  0  0  0  0  0
   50.8640   33.3650  130.4020 H   0  0  0  0  0  0  0  0  0  0  0  0
   52.7870   28.5980  131.6850 H   0  0  0  0  0  0  0  0  0  0  0  0
   52.4370   31.5870  131.6030 H   0  0  0  0  0  0  0  0  0  0  0  0
   53.3270   32.9150  131.5340 H   0  0  0  0  0  3  0  0  0  0  0  0
   51.8920   27.6760  129.7250 H   0  0  0  0  0  0  0  0  0  0  0  0
   53.8970   32.1150  129.5830 H   0  0  0  0  0  0  0  0  0  0  0  0
   52.5230   32.7870  129.0940 H   0  0  0  0  0  0  0  0  0  0  0  0
   52.1350   30.7830  128.3010 H   0  0  0  0  0  0  0  0  0  0  0  0
   54.5260   37.4010  135.0290 H   0  0  0  0  0  0  0  0  0  0  0  0
   48.7060   36.7790  128.8090 H   0  0  0  0  0  0  0  0  0  0  0  0
   47.5420   38.8490  129.5410 H   0  0  0  0  0  0  0  0  0  0  0  0
   50.4610   43.2250  128.0980 H   0  0  0  0  0  0  0  0  0  0  0  0
   49.0270   35.6480  130.6930 H   0  0  0  0  0  0  0  0  0  0  0  0
   48.1950   37.8740  131.7660 H   0  0  0  0  0  0  0  0  0  0  0  0
   50.9030   37.2770  131.7490 H   0  0  0  0  0  0  0  0  0  0  0  0
   51.4310   35.0990  129.8650 H   0  0  0  0  0  0  0  0  0  0  0  0
   52.5360   35.8240  130.7540 H   0  0  0  0  0  2  0  0  0  0  0  0
   50.6140   41.9490  123.7050 H   0  0  0  0  0  0  0  0  0  0  0  0
   51.3660   40.5170  123.7960 H   0  0  0  0  0  0  0  0  0  0  0  0
   50.2170   36.9810  126.9390 H   0  0  0  0  0  0  0  0  0  0  0  0
   52.6820   36.6790  135.6530 H   0  0  0  0  0  0  0  0  0  0  0  0
   51.6570   36.4920  133.5330 H   0  0  0  0  0  2  0  0  0  0  0  0
   51.2770   35.3010  134.4680 H   0  0  0  0  0  2  0  0  0  0  0  0
   52.6410   33.8320  133.3050 Hg  0  0  0  0  0 10  0  0  0  0  0  0
   53.2960   35.0390  132.5000 Hg  0  0  0  0  0 12  0  0  0  0  0  0
   54.1300   36.8780  134.4000 N   0  0  0  0  0  4  0  0  0  0  0  0
   50.6900   42.4030  126.3120 N   0  0  0  0  0  2  0  0  0  0  0  0
   52.8450   29.4020  131.3010 N   0  0  0  0  0  2  0  0  0  0  0  0
   51.9300   28.4870  129.2770 N   0  0  0  0  0  2  0  0  0  0  0  0
   52.4420   30.8060  129.1890 N   0  0  0  0  0  0  0  0  0  0  0  0
   50.3000   41.2310  128.2670 N   0  0  0  0  0  2  0  0  0  0  0  0
   50.9170   41.2490  124.2130 N   0  0  0  0  0  0  0  0  0  0  0  0
   50.5100   38.7130  125.8240 N   0  0  0  0  0  2  0  0  0  0  0  0
   50.1310   38.7560  127.9770 N   0  0  0  0  0  0  0  0  0  0  0  0
   51.4430   34.5770  131.8410 N   0  0  0  0  0  5  0  0  0  0  0  0
   55.0240   34.7100  135.4020 O   0  0  0  0  0  1  0  0  0  0  0  0
   47.5110   37.9680  129.7990 O   0  0  0  0  0  0  0  0  0  0  0  0
   48.7110   37.1780  131.9630 O   0  0  0  0  0  0  0  0  0  0  0  0
   51.1220   37.6050  129.7730 O   0  0  0  0  0  0  0  0  0  0  0  0
   53.1280   34.3780  136.5330 O   0  0  0  0  0  1  0  0  0  0  0  0
  1 16  1  0
  1 45  1  0
  1 57  1  0
  1 61  1  0
  2  8  1  0
  2 20  1  0
  2 55  1  0
  2 60  1  0
  3  4  1  0
  3 21  1  0
  3 22  1  0
  3 45  1  0
  3 46  1  0
  3 56  1  0
  4  5  1  0
  4 24  1  0
  4 25  1  0
  4 45  1  0
  4 46  1  0
  5 27  1  0
  5 28  1  0
  5 51  1  0
  6 49  1  0
  6 50  1  0
  6 51  1  0
  7 33  1  0
  7 48  1  0
  7 52  1  0
  8  9  1  0
  8 31  1  0
  8 58  1  0
  9 11  1  0
  9 34  1  0
  9 59  1  0
 10 12  1  0
 10 52  1  0
 10 55  1  0
 11 13  1  0
 11 36  1  0
 11 60  1  0
 12 14  1  0
 12 54  1  0
 13 37  1  0
 13 38  1  0
 13 46  1  0
 13 56  1  0
 14 48  1  0
 14 53  1  0
 15 41  1  0
 15 54  1  0
 15 55  1  0
 16 17  1  0
 16 42  1  0
 16 45  1  0
 16 46  1  0
 16 47  1  0
 17 18  1  0
 17 43  1  0
 17 44  1  0
 17 45  1  0
 17 46  1  0
 18 45  1  0
 18 46  1  0
 18 56  1  0
 19 47  1  0
 23 49  1  0
 25 45  1  0
 25 46  1  0
 26 50  1  0
 29 51  1  0
 30 47  1  0
 32 58  1  0
 35 59  1  0
 38 46  1  0
 39 53  1  0
 40 53  1  0
 43 46  1  0
 44 45  1  0
 45 46  1  0
 45 56  1  0
 46 47  1  0
 46 56  1  0
M  END
$$$$
