5isf_B_6D4_501
     RDKit          3D

 55 57  0  0  0  0  0  0  0  0999 V2000
   23.3630   25.5440  115.6590 C   0  0  0  0  0  3  0  0  0  0  0  0
   22.9430   26.7680  116.2660 C   0  0  0  0  0  3  0  0  0  0  0  0
   22.3360   27.6690  115.4460 C   0  0  0  0  0  3  0  0  0  0  0  0
   22.5960   26.2040  113.6810 C   0  0  0  0  0  3  0  0  0  0  0  0
   23.8980   25.4830  117.8370 C   0  0  0  0  0  3  0  0  0  0  0  0
   24.4440   23.6260  116.5200 C   0  0  0  0  0  0  0  0  0  0  0  0
   25.7980   23.4330  117.0780 C   0  0  0  0  0  0  0  0  0  0  0  0
   25.8670   22.0340  117.4890 C   0  0  0  0  0  0  0  0  0  0  0  0
   24.5010   21.6070  117.7920 C   0  0  0  0  0  0  0  0  0  0  0  0
   24.2640   21.4680  119.2630 C   0  0  0  0  0  0  0  0  0  0  0  0
   22.9940   19.4420  119.1700 C   0  0  0  0  0  0  0  0  0  0  0  0
   23.3000   17.9180  118.9400 C   0  0  0  0  0  0  0  0  0  0  0  0
   22.8920   17.4610  117.5150 C   0  0  0  0  0  0  0  0  0  0  0  0
   23.6760   16.2020  117.1840 C   0  0  0  0  0  3  0  0  0  0  0  0
   24.3370   19.8810  121.1060 C   0  0  0  0  0  0  0  0  0  0  0  0
   23.5370   20.9080  121.9300 C   0  0  0  0  0  0  0  0  0  0  0  0
   22.4570   26.0440  112.7760 H   0  0  0  0  0  0  0  0  0  0  0  0
   24.2260   25.1430  118.5500 H   0  0  0  0  0  0  0  0  0  0  0  0
   21.7400   29.0270  116.8590 H   0  0  0  0  0  0  0  0  0  0  0  0
   21.7440   29.6290  115.4810 H   0  0  0  0  0  0  0  0  0  0  0  0
   25.9220   23.9930  117.8210 H   0  0  0  0  0  0  0  0  0  0  0  0
   26.4110   21.9450  118.2490 H   0  0  0  0  0  0  0  0  0  0  0  0
   24.3330   20.7860  117.3680 H   0  0  0  0  0  0  0  0  0  0  0  0
   26.6560   23.2320  115.4020 H   0  0  0  0  0  0  0  0  0  0  0  0
   25.7660   21.0840  115.8320 H   0  0  0  0  0  0  0  0  0  0  0  0
   25.1130   18.8770  124.8600 H   0  0  0  0  0  0  0  0  0  0  0  0
   24.9580   21.8960  119.7290 H   0  0  0  0  0  0  0  0  0  0  0  0
   23.4460   21.8710  119.4850 H   0  0  0  0  0  0  0  0  0  0  0  0
   22.3190   19.5390  119.8170 H   0  0  0  0  0  0  0  0  0  0  0  0
   22.7220   19.8390  118.3640 H   0  0  0  0  0  0  0  0  0  0  0  0
   24.2200   17.7700  119.0570 H   0  0  0  0  0  0  0  0  0  0  0  0
   22.8260   17.4110  119.5720 H   0  0  0  0  0  0  0  0  0  0  0  0
   23.0950   18.1360  116.8940 H   0  0  0  0  0  0  0  0  0  0  0  0
   21.0300   17.8970  117.6210 H   0  0  0  0  0  0  0  0  0  0  0  0
   21.2940   16.5720  118.0830 H   0  0  0  0  0  0  0  0  0  0  0  0
   25.2420   19.9440  121.3470 H   0  0  0  0  0  0  0  0  0  0  0  0
   24.0290   19.0210  121.3210 H   0  0  0  0  0  0  0  0  0  0  0  0
   23.2910   21.6560  121.5930 H   0  0  0  0  0  0  0  0  0  0  0  0
   22.7790   20.5180  121.8580 H   0  0  0  0  0  0  0  0  0  0  0  0
   24.4550   23.4070  115.6070 H   0  0  0  0  0  0  0  0  0  0  0  0
   22.1550   27.3970  114.1580 N   0  0  0  0  0  2  0  0  0  0  0  0
   23.2170   25.2130  114.3840 N   0  0  0  0  0  2  0  0  0  0  0  0
   23.8990   24.9300  116.6860 N   0  0  0  0  0  0  0  0  0  0  0  0
   23.3090   26.7190  117.7450 N   0  0  0  0  0  2  0  0  0  0  0  0
   21.8770   28.9500  116.0050 N   0  0  0  0  0  0  0  0  0  0  0  0
   24.2240   20.0680  119.6400 N   0  0  0  0  0  0  0  0  0  0  0  0
   21.4860   17.1660  117.4710 N   0  0  0  0  0  0  0  0  0  0  0  0
   23.7750   20.9270  123.1660 N   0  0  0  0  0  2  0  0  0  0  0  0
   24.0830   19.9040  123.7590 N   0  0  0  0  0  2  0  0  0  0  0  0
   24.4010   18.8830  124.3570 N   0  0  0  0  0  2  0  0  0  0  0  0
   23.5350   22.6570  117.2520 O   0  0  0  0  0  0  0  0  0  0  0  0
   26.8120   23.6890  116.0790 O   0  0  0  0  0  0  0  0  0  0  0  0
   26.3710   21.2030  116.3900 O   0  0  0  0  0  0  0  0  0  0  0  0
   24.8600   16.2780  116.7790 O   0  0  0  0  0  1  0  0  0  0  0  0
   23.1340   15.0770  117.3300 O   0  0  0  0  0  1  0  0  0  0  0  0
  1  2  1  0
  1 42  1  0
  1 43  1  0
  2  3  1  0
  2 44  1  0
  3 41  1  0
  3 45  1  0
  4 17  1  0
  4 41  1  0
  4 42  1  0
  5 18  1  0
  5 43  1  0
  5 44  1  0
  6  7  1  0
  6 40  1  0
  6 43  1  0
  6 51  1  0
  7  8  1  0
  7 21  1  0
  7 52  1  0
  8  9  1  0
  8 22  1  0
  8 53  1  0
  9 10  1  0
  9 23  1  0
  9 51  1  0
 10 27  1  0
 10 28  1  0
 10 46  1  0
 11 12  1  0
 11 29  1  0
 11 30  1  0
 11 46  1  0
 12 13  1  0
 12 31  1  0
 12 32  1  0
 13 14  1  0
 13 33  1  0
 13 47  1  0
 14 54  1  0
 14 55  1  0
 15 16  1  0
 15 36  1  0
 15 37  1  0
 15 46  1  0
 16 38  1  0
 16 39  1  0
 16 48  1  0
 19 45  1  0
 20 45  1  0
 24 52  1  0
 25 53  1  0
 26 50  1  0
 34 47  1  0
 35 47  1  0
 48 49  1  0
 49 50  1  0
M  END
$$$$
