5isf_B_DXE_505
     RDKit          3D

 16 15  0  0  0  0  0  0  0  0999 V2000
   29.3250    9.9600  126.9390 C   0  0  0  0  0  0  0  0  0  0  0  0
   28.0030    9.7660  128.8770 C   0  0  0  0  0  0  0  0  0  0  0  0
   28.5820    9.8360  130.2900 C   0  0  0  0  0  0  0  0  0  0  0  0
   28.8700    8.5780  132.2420 C   0  0  0  0  0  0  0  0  0  0  0  0
   29.9940    9.3350  127.2600 H   0  0  0  0  0  0  0  0  0  0  0  0
   28.6480    9.4790  126.4380 H   0  0  0  0  0  0  0  0  0  0  0  0
   29.7470   10.6170  126.3630 H   0  0  0  0  0  0  0  0  0  0  0  0
   27.0750   10.0480  128.8950 H   0  0  0  0  0  0  0  0  0  0  0  0
   28.0570    8.8540  128.5510 H   0  0  0  0  0  0  0  0  0  0  0  0
   28.2190   10.6090  130.7500 H   0  0  0  0  0  0  0  0  0  0  0  0
   29.5480    9.9160  130.2390 H   0  0  0  0  0  0  0  0  0  0  0  0
   28.6950    9.3830  132.7540 H   0  0  0  0  0  0  0  0  0  0  0  0
   29.8260    8.4740  132.1190 H   0  0  0  0  0  0  0  0  0  0  0  0
   28.5200    7.8090  132.7190 H   0  0  0  0  0  0  0  0  0  0  0  0
   28.7300   10.6080  128.0270 O   0  0  0  0  0  0  0  0  0  0  0  0
   28.2470    8.6740  130.9940 O   0  0  0  0  0  0  0  0  0  0  0  0
  1  5  1  0
  1  6  1  0
  1  7  1  0
  1 15  1  0
  2  3  1  0
  2  8  1  0
  2  9  1  0
  2 15  1  0
  3 10  1  0
  3 11  1  0
  3 16  1  0
  4 12  1  0
  4 13  1  0
  4 14  1  0
  4 16  1  0
M  END
$$$$
