5isg_A_M2M_510
     RDKit          3D

 23 22  0  0  0  0  0  0  0  0999 V2000
   43.1200    9.0830  106.5100 C   0  0  0  0  0  0  0  0  0  0  0  0
   45.0910   10.3760  106.7640 C   0  0  0  0  0  0  0  0  0  0  0  0
   45.8140   10.6860  108.0940 C   0  0  0  0  0  0  0  0  0  0  0  0
   46.8940    8.6210  108.6990 C   0  0  0  0  0  0  0  0  0  0  0  0
   47.0500    7.5890  107.5550 C   0  0  0  0  0  0  0  0  0  0  0  0
   47.4540    5.2920  107.1520 C   0  0  0  0  0  0  0  0  0  0  0  0
   42.5940    9.4940  105.8060 H   0  0  0  0  0  0  0  0  0  0  0  0
   43.3400    8.2750  106.0190 H   0  0  0  0  0  0  0  0  0  0  0  0
   43.0280    8.6570  107.3760 H   0  0  0  0  0  0  0  0  0  0  0  0
   45.4190    9.5360  106.4070 H   0  0  0  0  0  0  0  0  0  0  0  0
   45.2670   11.0870  106.1280 H   0  0  0  0  0  0  0  0  0  0  0  0
   45.2340   10.4540  108.8370 H   0  0  0  0  0  0  0  0  0  0  0  0
   46.0230   11.6320  108.1340 H   0  0  0  0  0  0  0  0  0  0  0  0
   47.5850    8.4730  109.3630 H   0  0  0  0  0  0  0  0  0  0  0  0
   46.0220    8.5140  109.1110 H   0  0  0  0  0  0  0  0  0  0  0  0
   46.2940    7.6600  106.9510 H   0  0  0  0  0  0  0  0  0  0  0  0
   47.8700    7.7680  107.0690 H   0  0  0  0  0  0  0  0  0  0  0  0
   47.4060    4.4180  107.5700 H   0  0  0  0  0  0  0  0  0  0  0  0
   46.8420    5.3250  106.4010 H   0  0  0  0  0  0  0  0  0  0  0  0
   48.3590    5.4520  106.8400 H   0  0  0  0  0  0  0  0  0  0  0  0
   43.6990   10.2790  106.9870 O   0  0  0  0  0  0  0  0  0  0  0  0
   47.0120    9.9350  108.1800 O   0  0  0  0  0  0  0  0  0  0  0  0
   47.0990    6.2830  108.0930 O   0  0  0  0  0  0  0  0  0  0  0  0
  1  7  1  0
  1  8  1  0
  1  9  1  0
  1 21  1  0
  2  3  1  0
  2 10  1  0
  2 11  1  0
  2 21  1  0
  3 12  1  0
  3 13  1  0
  3 22  1  0
  4  5  1  0
  4 14  1  0
  4 15  1  0
  4 22  1  0
  5 16  1  0
  5 17  1  0
  5 23  1  0
  6 18  1  0
  6 19  1  0
  6 20  1  0
  6 23  1  0
M  END
$$$$
