5ish_A_765_501
     RDKit          3D

 51 54  0  0  0  0  0  0  0  0999 V2000
   52.7240   35.0890  133.2610 C   0  0  0  0  0  0  0  0  0  0  0  0
   50.2610   39.9160  128.1300 C   0  0  0  0  0  3  0  0  0  0  0  0
   50.4290   39.9430  126.7480 C   0  0  0  0  0  3  0  0  0  0  0  0
   50.1290   37.8720  127.3580 C   0  0  0  0  0  3  0  0  0  0  0  0
   50.5130   42.2380  128.1610 C   0  0  0  0  0  3  0  0  0  0  0  0
   50.6370   41.1570  126.1010 C   0  0  0  0  0  3  0  0  0  0  0  0
   51.7800   33.2590  131.9150 C   0  0  0  0  0  0  0  0  0  0  0  0
   50.6890   33.9230  132.5570 C   0  0  0  0  0  0  0  0  0  0  0  0
   52.1740   35.5210  134.6230 C   0  0  0  0  0  0  0  0  0  0  0  0
   53.1720   35.9750  135.6680 C   0  0  0  0  0  0  0  0  0  0  0  0
   53.7230   34.7450  136.2420 C   0  0  0  0  0  3  0  0  0  0  0  0
   51.5520   35.5050  130.9870 C   0  0  0  0  0  0  0  0  0  0  0  0
   50.7850   36.6850  131.3160 C   0  0  0  0  0  0  0  0  0  0  0  0
   49.2850   36.5030  131.1950 C   0  0  0  0  0  0  0  0  0  0  0  0
   48.8690   37.2420  130.0430 C   0  0  0  0  0  0  0  0  0  0  0  0
   49.8840   38.2060  129.8460 C   0  0  0  0  0  0  0  0  0  0  0  0
   53.3730   34.3170  133.4310 H   0  0  0  0  0  0  0  0  0  0  0  0
   51.0630   34.9840  130.3310 H   0  0  0  0  0  0  0  0  0  0  0  0
   51.0350   37.0230  132.1970 H   0  0  0  0  0  0  0  0  0  0  0  0
   49.0540   35.5380  131.0780 H   0  0  0  0  0  0  0  0  0  0  0  0
   48.9820   37.8020  132.4910 H   0  0  0  0  0  0  0  0  0  0  0  0
   48.8750   36.6390  129.2910 H   0  0  0  0  0  0  0  0  0  0  0  0
   47.6940   38.4780  130.8790 H   0  0  0  0  0  0  0  0  0  0  0  0
   49.6610   38.9990  130.3800 H   0  0  0  0  0  0  0  0  0  0  0  0
   50.0240   36.9030  127.3250 H   0  0  0  0  0  0  0  0  0  0  0  0
   50.5470   43.0850  128.6820 H   0  0  0  0  0  0  0  0  0  0  0  0
   50.8410   40.3870  124.2280 H   0  0  0  0  0  0  0  0  0  0  0  0
   53.2520   35.8330  132.9260 H   0  0  0  0  0  0  0  0  0  0  0  0
   50.8580   41.9630  124.2770 H   0  0  0  0  0  0  0  0  0  0  0  0
   51.6300   32.9880  130.9900 H   0  0  0  0  0  0  0  0  0  0  0  0
   52.3470   32.6990  132.5140 H   0  0  0  0  0  0  0  0  0  0  0  0
   50.6060   33.7470  133.5210 H   0  0  0  0  0  0  0  0  0  0  0  0
   49.8570   34.0350  131.9970 H   0  0  0  0  0  0  0  0  0  0  0  0
   51.5410   36.2630  134.4780 H   0  0  0  0  0  0  0  0  0  0  0  0
   51.6760   34.7650  135.0010 H   0  0  0  0  0  0  0  0  0  0  0  0
   52.7390   36.4820  136.3500 H   0  0  0  0  0  0  0  0  0  0  0  0
   54.8850   36.2770  134.6830 H   0  0  0  0  0  0  0  0  0  0  0  0
   53.8270   37.3770  134.4410 H   0  0  0  0  0  0  0  0  0  0  0  0
   52.3900   35.7720  130.6080 H   0  0  0  0  0  0  0  0  0  0  0  0
   54.2050   36.8270  135.0870 N   0  0  0  0  0  0  0  0  0  0  0  0
   50.0670   38.6230  128.4570 N   0  0  0  0  0  0  0  0  0  0  0  0
   50.3370   38.6750  126.3050 N   0  0  0  0  0  2  0  0  0  0  0  0
   50.3100   41.0750  128.8090 N   0  0  0  0  0  2  0  0  0  0  0  0
   50.6750   42.2850  126.8320 N   0  0  0  0  0  2  0  0  0  0  0  0
   50.7970   41.1820  124.7050 N   0  0  0  0  0  0  0  0  0  0  0  0
   51.8100   34.6650  132.1610 N   0  0  0  0  0  4  0  0  0  0  0  0
   54.9020   34.4050  135.9650 O   0  0  0  0  0  1  0  0  0  0  0  0
   48.6970   37.0030  132.3450 O   0  0  0  0  0  0  0  0  0  0  0  0
   47.6040   37.8580  130.2820 O   0  0  0  0  0  0  0  0  0  0  0  0
   51.1090   37.6360  130.3820 O   0  0  0  0  0  0  0  0  0  0  0  0
   53.0450   34.0510  136.9920 O   0  0  0  0  0  1  0  0  0  0  0  0
  1  9  1  0
  1 17  1  0
  1 28  1  0
  1 46  1  0
  2  3  1  0
  2 41  1  0
  2 43  1  0
  3  6  1  0
  3 42  1  0
  4 25  1  0
  4 41  1  0
  4 42  1  0
  5 26  1  0
  5 43  1  0
  5 44  1  0
  6 44  1  0
  6 45  1  0
  7  8  1  0
  7 30  1  0
  7 31  1  0
  7 46  1  0
  8 32  1  0
  8 33  1  0
  8 46  1  0
  9 10  1  0
  9 34  1  0
  9 35  1  0
 10 11  1  0
 10 36  1  0
 10 40  1  0
 11 47  1  0
 11 51  1  0
 12 13  1  0
 12 18  1  0
 12 39  1  0
 12 46  1  0
 13 14  1  0
 13 19  1  0
 13 50  1  0
 14 15  1  0
 14 20  1  0
 14 48  1  0
 15 16  1  0
 15 22  1  0
 15 49  1  0
 16 24  1  0
 16 41  1  0
 16 50  1  0
 21 48  1  0
 23 49  1  0
 27 45  1  0
 29 45  1  0
 37 40  1  0
 38 40  1  0
M  END
$$$$
