5ish_A_DXE_506
     RDKit          3D

 16 15  0  0  0  0  0  0  0  0999 V2000
   73.6600   22.5810  131.0390 C   0  0  0  0  0  0  0  0  0  0  0  0
   71.3390   22.7350  131.3380 C   0  0  0  0  0  0  0  0  0  0  0  0
   70.2430   21.7320  130.9860 C   0  0  0  0  0  0  0  0  0  0  0  0
   69.2250   21.3230  133.0780 C   0  0  0  0  0  0  0  0  0  0  0  0
   73.6840   21.8580  131.6850 H   0  0  0  0  0  0  0  0  0  0  0  0
   74.3390   22.4320  130.3620 H   0  0  0  0  0  0  0  0  0  0  0  0
   73.8310   23.4230  131.4890 H   0  0  0  0  0  0  0  0  0  0  0  0
   70.9760   23.6340  131.3000 H   0  0  0  0  0  0  0  0  0  0  0  0
   71.6620   22.5570  132.2350 H   0  0  0  0  0  0  0  0  0  0  0  0
   70.5780   20.8300  131.1110 H   0  0  0  0  0  0  0  0  0  0  0  0
   69.9770   21.8530  130.0610 H   0  0  0  0  0  0  0  0  0  0  0  0
   70.0530   21.5840  133.5100 H   0  0  0  0  0  0  0  0  0  0  0  0
   68.4740   21.5980  133.6270 H   0  0  0  0  0  0  0  0  0  0  0  0
   69.2070   20.3590  132.9680 H   0  0  0  0  0  0  0  0  0  0  0  0
   72.3980   22.6240  130.4330 O   0  0  0  0  0  0  0  0  0  0  0  0
   69.1370   21.9390  131.8220 O   0  0  0  0  0  0  0  0  0  0  0  0
  1  5  1  0
  1  6  1  0
  1  7  1  0
  1 15  1  0
  2  3  1  0
  2  8  1  0
  2  9  1  0
  2 15  1  0
  3 10  1  0
  3 11  1  0
  3 16  1  0
  4 12  1  0
  4 13  1  0
  4 14  1  0
  4 16  1  0
M  END
$$$$
