5ish_C_DXE_507
     RDKit          3D

 16 15  0  0  0  0  0  0  0  0999 V2000
   28.9450   10.5540  201.3380 C   0  0  0  0  0  0  0  0  0  0  0  0
   27.9720    8.5970  202.2100 C   0  0  0  0  0  0  0  0  0  0  0  0
   27.8700    7.1090  201.8690 C   0  0  0  0  0  0  0  0  0  0  0  0
   27.2840    5.7740  203.7220 C   0  0  0  0  0  0  0  0  0  0  0  0
   29.7120   10.4180  201.9160 H   0  0  0  0  0  0  0  0  0  0  0  0
   29.2350   10.9630  200.5070 H   0  0  0  0  0  0  0  0  0  0  0  0
   28.3070   11.1370  201.7790 H   0  0  0  0  0  0  0  0  0  0  0  0
   28.6410    8.7240  202.9000 H   0  0  0  0  0  0  0  0  0  0  0  0
   27.1130    8.9140  202.5300 H   0  0  0  0  0  0  0  0  0  0  0  0
   28.7110    6.6720  202.0750 H   0  0  0  0  0  0  0  0  0  0  0  0
   27.6770    7.0070  200.9240 H   0  0  0  0  0  0  0  0  0  0  0  0
   27.7730    4.9960  203.4110 H   0  0  0  0  0  0  0  0  0  0  0  0
   27.8640    6.3230  204.2720 H   0  0  0  0  0  0  0  0  0  0  0  0
   26.5190    5.4870  204.2450 H   0  0  0  0  0  0  0  0  0  0  0  0
   28.3390    9.3190  201.0640 O   0  0  0  0  0  0  0  0  0  0  0  0
   26.8420    6.5200  202.6200 O   0  0  0  0  0  0  0  0  0  0  0  0
  1  5  1  0
  1  6  1  0
  1  7  1  0
  1 15  1  0
  2  3  1  0
  2  8  1  0
  2  9  1  0
  2 15  1  0
  3 10  1  0
  3 11  1  0
  3 16  1  0
  4 12  1  0
  4 13  1  0
  4 14  1  0
  4 16  1  0
M  END
$$$$
