5k8v_D_6RE_501
     RDKit          3D

 42 44  0  0  0  0  0  0  0  0999 V2000
   51.9920   22.4700  193.5400 C   0  0  0  0  0  0  0  0  0  0  0  0
   54.2780   24.9970  196.2830 C   0  0  0  0  0  3  0  0  0  0  0  0
   50.5400   22.4380  193.0530 C   0  0  0  0  0  0  0  0  0  0  0  0
   50.4230   20.9840  192.5990 C   0  0  0  0  0  0  0  0  0  0  0  0
   53.3410   24.4520  194.3650 C   0  0  0  0  0  3  0  0  0  0  0  0
   51.7850   20.7490  191.9630 C   0  0  0  0  0  0  0  0  0  0  0  0
   53.8140   25.5990  193.7460 C   0  0  0  0  0  3  0  0  0  0  0  0
   51.9270   21.2240  190.5320 C   0  0  0  0  0  0  0  0  0  0  0  0
   54.5840   26.4750  194.5310 C   0  0  0  0  0  3  0  0  0  0  0  0
   52.1840   20.0630  189.5940 C   0  0  0  0  0  0  0  0  0  0  0  0
   52.7370   24.5280  192.2640 C   0  0  0  0  0  3  0  0  0  0  0  0
   52.4740   19.9300  187.1370 C   0  0  0  0  0  3  0  0  0  0  0  0
   52.0960   22.1540  194.5780 H   0  0  0  0  0  0  0  0  0  0  0  0
   54.4880   24.7840  197.3300 H   0  0  0  0  0  0  0  0  0  0  0  0
   50.3680   23.1200  192.2220 H   0  0  0  0  0  0  0  0  0  0  0  0
   49.5740   20.8100  191.9400 H   0  0  0  0  0  0  0  0  0  0  0  0
   52.0960   19.7130  192.0880 H   0  0  0  0  0  0  0  0  0  0  0  0
   52.7070   21.9790  190.4460 H   0  0  0  0  0  0  0  0  0  0  0  0
   51.0380   21.7550  190.1970 H   0  0  0  0  0  0  0  0  0  0  0  0
   51.6170   19.2040  189.9510 H   0  0  0  0  0  0  0  0  0  0  0  0
   53.2300   19.7620  189.6380 H   0  0  0  0  0  0  0  0  0  0  0  0
   52.2800   24.2460  191.3160 H   0  0  0  0  0  0  0  0  0  0  0  0
   54.9880   27.9220  193.1150 H   0  0  0  0  0  0  0  0  0  0  0  0
   55.6600   28.2040  194.6930 H   0  0  0  0  0  0  0  0  0  0  0  0
   51.0660   21.0220  188.1000 H   0  0  0  0  0  0  0  0  0  0  0  0
   52.5030   19.9670  185.0770 H   0  0  0  0  0  0  0  0  0  0  0  0
   53.8580   18.7910  188.1590 H   0  0  0  0  0  0  0  0  0  0  0  0
   54.0210   18.7230  186.4810 H   0  0  0  0  0  0  0  0  0  0  0  0
   51.2770   20.9070  185.7760 H   0  0  0  0  0  0  0  0  0  0  0  0
   49.6740   21.9660  194.7310 H   0  0  0  0  0  0  0  0  0  0  0  0
   50.9750   20.1150  194.3020 H   0  0  0  0  0  0  0  0  0  0  0  0
   54.8030   26.1360  195.8210 N   0  0  0  0  0  2  0  0  0  0  0  0
   53.5010   19.1080  187.2630 N   0  0  0  0  0  0  0  0  0  0  0  0
   53.5360   24.0920  195.6390 N   0  0  0  0  0  2  0  0  0  0  0  0
   55.1130   27.6140  194.0740 N   0  0  0  0  0  0  0  0  0  0  0  0
   53.4210   25.6360  192.4160 N   0  0  0  0  0  2  0  0  0  0  0  0
   51.8500   20.3880  188.2140 N   0  0  0  0  0  0  0  0  0  0  0  0
   52.6500   23.7640  193.3980 N   0  0  0  0  0  0  0  0  0  0  0  0
   52.0640   20.2860  185.9350 N   0  0  0  0  0  0  0  0  0  0  0  0
   49.6420   22.7430  194.1130 O   0  0  0  0  0  0  0  0  0  0  0  0
   50.1940   20.0970  193.6880 O   0  0  0  0  0  0  0  0  0  0  0  0
   52.7050   21.5190  192.7670 O   0  0  0  0  0  0  0  0  0  0  0  0
  1  3  1  0
  1 13  1  0
  1 38  1  0
  1 42  1  0
  2 14  1  0
  2 32  1  0
  2 34  1  0
  3  4  1  0
  3 15  1  0
  3 40  1  0
  4  6  1  0
  4 16  1  0
  4 41  1  0
  5  7  1  0
  5 34  1  0
  5 38  1  0
  6  8  1  0
  6 17  1  0
  6 42  1  0
  7  9  1  0
  7 36  1  0
  8 10  1  0
  8 18  1  0
  8 19  1  0
  9 32  1  0
  9 35  1  0
 10 20  1  0
 10 21  1  0
 10 37  1  0
 11 22  1  0
 11 36  1  0
 11 38  1  0
 12 33  1  0
 12 37  1  0
 12 39  1  0
 23 35  1  0
 24 35  1  0
 25 37  1  0
 26 39  1  0
 27 33  1  0
 28 33  1  0
 29 39  1  0
 30 40  1  0
 31 41  1  0
M  END
$$$$
