5k8w_D_DXE_502
     RDKit          3D

 16 15  0  0  0  0  0  0  0  0999 V2000
   67.9370    9.6480  176.4420 C   0  0  0  0  0  0  0  0  0  0  0  0
   65.8690   10.7560  176.1440 C   0  0  0  0  0  0  0  0  0  0  0  0
   64.7050    9.7640  176.1980 C   0  0  0  0  0  0  0  0  0  0  0  0
   64.2670    7.5140  176.7200 C   0  0  0  0  0  0  0  0  0  0  0  0
   68.6190    9.4750  177.1100 H   0  0  0  0  0  0  0  0  0  0  0  0
   68.3170   10.1750  175.7210 H   0  0  0  0  0  0  0  0  0  0  0  0
   67.6090    8.8070  176.0890 H   0  0  0  0  0  0  0  0  0  0  0  0
   66.2250   10.7860  175.2420 H   0  0  0  0  0  0  0  0  0  0  0  0
   65.5520   11.6380  176.3950 H   0  0  0  0  0  0  0  0  0  0  0  0
   64.4710    9.4930  175.2960 H   0  0  0  0  0  0  0  0  0  0  0  0
   63.9390   10.1880  176.6160 H   0  0  0  0  0  0  0  0  0  0  0  0
   64.6410    6.7490  177.1840 H   0  0  0  0  0  0  0  0  0  0  0  0
   63.3730    7.6890  177.0520 H   0  0  0  0  0  0  0  0  0  0  0  0
   64.2280    7.3270  175.7690 H   0  0  0  0  0  0  0  0  0  0  0  0
   66.8780   10.3550  177.0280 O   0  0  0  0  0  0  0  0  0  0  0  0
   65.0770    8.6360  176.9420 O   0  0  0  0  0  0  0  0  0  0  0  0
  1  5  1  0
  1  6  1  0
  1  7  1  0
  1 15  1  0
  2  3  1  0
  2  8  1  0
  2  9  1  0
  2 15  1  0
  3 10  1  0
  3 11  1  0
  3 16  1  0
  4 12  1  0
  4 13  1  0
  4 14  1  0
  4 16  1  0
M  END
$$$$
