5k8x_B_6ZH_501
     RDKit          3D

 43 45  0  0  0  0  0  0  0  0999 V2000
   24.6200   23.7170  115.9800 C   0  0  0  0  0  0  0  0  0  0  0  0
   22.5670   26.3230  113.1350 C   0  0  0  0  0  3  0  0  0  0  0  0
   26.0110   23.5670  116.5820 C   0  0  0  0  0  0  0  0  0  0  0  0
   25.9920   22.0820  116.9500 C   0  0  0  0  0  0  0  0  0  0  0  0
   23.4680   25.7840  115.0730 C   0  0  0  0  0  3  0  0  0  0  0  0
   24.5810   21.9510  117.5080 C   0  0  0  0  0  0  0  0  0  0  0  0
   23.0730   26.9820  115.6480 C   0  0  0  0  0  3  0  0  0  0  0  0
   24.4740   22.4020  118.8740 C   0  0  0  0  0  3  0  0  0  0  0  0
   22.3830   27.8860  114.8280 C   0  0  0  0  0  3  0  0  0  0  0  0
   23.6750   21.8000  119.7250 C   0  0  0  0  0  3  0  0  0  0  0  0
   23.4900   22.2350  121.1480 C   0  0  0  0  0  0  0  0  0  0  0  0
   24.0170   25.8640  117.1860 C   0  0  0  0  0  3  0  0  0  0  0  0
   24.2560   20.2450  122.2820 C   0  0  0  0  0  3  0  0  0  0  0  0
   23.0800   20.9280  119.4570 H   0  0  0  0  0  0  0  0  0  0  0  0
   21.5350   29.7390  114.5820 H   0  0  0  0  0  0  0  0  0  0  0  0
   22.2640   29.4590  116.1380 H   0  0  0  0  0  0  0  0  0  0  0  0
   22.3220   26.1040  112.0970 H   0  0  0  0  0  0  0  0  0  0  0  0
   23.6650   23.3100  121.1720 H   0  0  0  0  0  0  0  0  0  0  0  0
   22.4770   22.0670  121.5110 H   0  0  0  0  0  0  0  0  0  0  0  0
   25.2470   22.0420  122.3070 H   0  0  0  0  0  0  0  0  0  0  0  0
   22.4360   20.0480  121.3220 H   0  0  0  0  0  0  0  0  0  0  0  0
   25.0590   18.6440  123.2850 H   0  0  0  0  0  0  0  0  0  0  0  0
   25.9910   20.0660  123.3790 H   0  0  0  0  0  0  0  0  0  0  0  0
   22.9880   18.6420  122.0840 H   0  0  0  0  0  0  0  0  0  0  0  0
   25.0900   23.2590  119.1410 H   0  0  0  0  0  0  0  0  0  0  0  0
   24.1780   20.9460  117.3850 H   0  0  0  0  0  0  0  0  0  0  0  0
   26.7710   21.7990  117.6560 H   0  0  0  0  0  0  0  0  0  0  0  0
   25.9170   21.7170  115.0040 H   0  0  0  0  0  0  0  0  0  0  0  0
   26.1580   24.1800  117.4700 H   0  0  0  0  0  0  0  0  0  0  0  0
   26.7420   23.3670  114.8100 H   0  0  0  0  0  0  0  0  0  0  0  0
   24.5690   23.4070  114.9370 H   0  0  0  0  0  0  0  0  0  0  0  0
   24.4270   25.5590  118.1480 H   0  0  0  0  0  0  0  0  0  0  0  0
   22.1210   27.5100  113.5590 N   0  0  0  0  0  2  0  0  0  0  0  0
   23.1710   19.6180  121.8740 N   0  0  0  0  0  0  0  0  0  0  0  0
   25.1530   19.6200  123.0230 N   0  0  0  0  0  0  0  0  0  0  0  0
   23.2580   25.3970  113.8080 N   0  0  0  0  0  2  0  0  0  0  0  0
   22.0350   29.1180  115.2100 N   0  0  0  0  0  0  0  0  0  0  0  0
   23.4310   27.0170  116.9880 N   0  0  0  0  0  2  0  0  0  0  0  0
   24.4420   21.5180  121.9780 N   0  0  0  0  0  0  0  0  0  0  0  0
   24.0720   25.0640  116.0720 N   0  0  0  0  0  0  0  0  0  0  0  0
   26.9950   23.8880  115.6160 O   0  0  0  0  0  0  0  0  0  0  0  0
   26.2090   21.2420  115.8260 O   0  0  0  0  0  0  0  0  0  0  0  0
   23.7790   22.8370  116.7010 O   0  0  0  0  0  0  0  0  0  0  0  0
  1  3  1  0
  1 31  1  0
  1 40  1  0
  1 43  1  0
  2 17  1  0
  2 33  1  0
  2 36  1  0
  3  4  1  0
  3 29  1  0
  3 41  1  0
  4  6  1  0
  4 27  1  0
  4 42  1  0
  5  7  1  0
  5 36  1  0
  5 40  1  0
  6  8  1  0
  6 26  1  0
  6 43  1  0
  7  9  1  0
  7 38  1  0
  8 10  1  0
  8 25  1  0
  9 33  1  0
  9 37  1  0
 10 11  1  0
 10 14  1  0
 11 18  1  0
 11 19  1  0
 11 39  1  0
 12 32  1  0
 12 38  1  0
 12 40  1  0
 13 34  1  0
 13 35  1  0
 13 39  1  0
 15 37  1  0
 16 37  1  0
 20 39  1  0
 21 34  1  0
 22 35  1  0
 23 35  1  0
 24 34  1  0
 28 42  1  0
 30 41  1  0
M  END
$$$$
