5lgq_F_8ZB_101
     RDKit          3D

 36 38  0  0  0  0  0  0  0  0999 V2000
   23.7380   20.7320  122.2200 C   0  0  0  0  0  3  0  0  0  0  0  0
   24.1060   20.5870  120.7540 C   0  0  0  0  0  0  0  0  0  0  0  0
   23.7140   21.8360  119.9710 C   0  0  0  0  0  0  0  0  0  0  0  0
   24.0740   21.7800  118.5000 C   0  0  0  0  0  0  0  0  0  0  0  0
   24.3840   23.6170  117.0770 C   0  0  0  0  0  0  0  0  0  0  0  0
   25.7100   23.3640  117.7880 C   0  0  0  0  0  0  0  0  0  0  0  0
   25.5590   21.8890  118.1610 C   0  0  0  0  0  0  0  0  0  0  0  0
   23.9990   25.8800  118.1550 C   0  0  0  0  0  3  0  0  0  0  0  0
   23.0580   26.9560  116.5850 C   0  0  0  0  0  3  0  0  0  0  0  0
   23.3300   25.6950  116.0830 C   0  0  0  0  0  3  0  0  0  0  0  0
   22.4290   26.1850  114.1300 C   0  0  0  0  0  3  0  0  0  0  0  0
   22.4080   27.8600  115.7250 C   0  0  0  0  0  3  0  0  0  0  0  0
   22.7840   21.2470  122.3230 H   0  0  0  0  0  0  0  0  0  0  0  0
   25.1700   20.3940  120.6260 H   0  0  0  0  0  0  0  0  0  0  0  0
   24.4720   21.3750  122.7020 H   0  0  0  0  0  0  0  0  0  0  0  0
   24.1660   22.7340  120.3890 H   0  0  0  0  0  0  0  0  0  0  0  0
   23.6180   19.7130  120.3240 H   0  0  0  0  0  0  0  0  0  0  0  0
   22.6450   22.0050  120.0880 H   0  0  0  0  0  0  0  0  0  0  0  0
   26.2300   21.5930  118.9660 H   0  0  0  0  0  0  0  0  0  0  0  0
   25.8490   23.9640  118.6860 H   0  0  0  0  0  0  0  0  0  0  0  0
   25.2860   21.2050  116.3170 H   0  0  0  0  0  0  0  0  0  0  0  0
   26.6650   22.9790  116.1290 H   0  0  0  0  0  0  0  0  0  0  0  0
   22.1570   25.8960  113.1160 H   0  0  0  0  0  0  0  0  0  0  0  0
   24.4330   25.6250  119.1200 H   0  0  0  0  0  0  0  0  0  0  0  0
   21.6110   29.7330  115.4180 H   0  0  0  0  0  0  0  0  0  0  0  0
   22.2970   29.4590  116.9960 H   0  0  0  0  0  0  0  0  0  0  0  0
   23.6530   20.8600  118.0970 H   0  0  0  0  0  0  0  0  0  0  0  0
   24.3860   23.2870  116.0380 H   0  0  0  0  0  0  0  0  0  0  0  0
   23.9340   25.0040  117.1030 N   0  0  0  0  0  0  0  0  0  0  0  0
   23.4900   27.0610  117.9000 N   0  0  0  0  0  2  0  0  0  0  0  0
   23.0420   25.2460  114.8530 N   0  0  0  0  0  2  0  0  0  0  0  0
   22.1010   27.4320  114.4800 N   0  0  0  0  0  2  0  0  0  0  0  0
   22.0800   29.1100  116.0680 N   0  0  0  0  0  0  0  0  0  0  0  0
   23.4200   22.8240  117.7430 O   0  0  0  0  0  0  0  0  0  0  0  0
   26.7990   23.5910  116.8990 O   0  0  0  0  0  0  0  0  0  0  0  0
   25.8990   21.0320  117.0790 O   0  0  0  0  0  0  0  0  0  0  0  0
  1  2  1  0
  1 13  1  0
  1 15  1  0
  2  3  1  0
  2 14  1  0
  2 17  1  0
  3  4  1  0
  3 16  1  0
  3 18  1  0
  4  7  1  0
  4 27  1  0
  4 34  1  0
  5  6  1  0
  5 28  1  0
  5 29  1  0
  5 34  1  0
  6  7  1  0
  6 20  1  0
  6 35  1  0
  7 19  1  0
  7 36  1  0
  8 24  1  0
  8 29  1  0
  8 30  1  0
  9 10  1  0
  9 12  1  0
  9 30  1  0
 10 29  1  0
 10 31  1  0
 11 23  1  0
 11 31  1  0
 11 32  1  0
 12 32  1  0
 12 33  1  0
 21 36  1  0
 22 35  1  0
 25 33  1  0
 26 33  1  0
M  END
$$$$
