5lgq_G_8ZB_101
     RDKit          3D

 36 38  0  0  0  0  0  0  0  0999 V2000
   24.4230   33.4570  181.0740 C   0  0  0  0  0  3  0  0  0  0  0  0
   25.0930   34.5340  180.2460 C   0  0  0  0  0  0  0  0  0  0  0  0
   25.3840   35.7620  181.0970 C   0  0  0  0  0  0  0  0  0  0  0  0
   26.0530   36.8890  180.3380 C   0  0  0  0  0  0  0  0  0  0  0  0
   27.2010   38.6350  181.4030 C   0  0  0  0  0  0  0  0  0  0  0  0
   28.1670   37.4590  181.2550 C   0  0  0  0  0  0  0  0  0  0  0  0
   27.5440   36.7240  180.0690 C   0  0  0  0  0  0  0  0  0  0  0  0
   27.1440   38.4730  183.9300 C   0  0  0  0  0  3  0  0  0  0  0  0
   26.8910   40.5000  184.4990 C   0  0  0  0  0  3  0  0  0  0  0  0
   26.9460   40.4930  183.1150 C   0  0  0  0  0  3  0  0  0  0  0  0
   26.7040   42.6800  183.0030 C   0  0  0  0  0  3  0  0  0  0  0  0
   26.7200   41.7530  185.1220 C   0  0  0  0  0  3  0  0  0  0  0  0
   23.6740   33.8930  181.7330 H   0  0  0  0  0  0  0  0  0  0  0  0
   24.4830   34.8190  179.3900 H   0  0  0  0  0  0  0  0  0  0  0  0
   25.1660   33.0050  181.7290 H   0  0  0  0  0  0  0  0  0  0  0  0
   24.4810   36.1600  181.5570 H   0  0  0  0  0  0  0  0  0  0  0  0
   26.0170   34.1590  179.8090 H   0  0  0  0  0  0  0  0  0  0  0  0
   25.9990   35.4660  181.9460 H   0  0  0  0  0  0  0  0  0  0  0  0
   27.8800   35.6910  179.9980 H   0  0  0  0  0  0  0  0  0  0  0  0
   28.1900   36.8030  182.1240 H   0  0  0  0  0  0  0  0  0  0  0  0
   27.5620   38.2370  178.7790 H   0  0  0  0  0  0  0  0  0  0  0  0
   29.4430   38.4160  180.1310 H   0  0  0  0  0  0  0  0  0  0  0  0
   26.6270   43.5930  182.4150 H   0  0  0  0  0  0  0  0  0  0  0  0
   27.2660   37.3920  183.9770 H   0  0  0  0  0  0  0  0  0  0  0  0
   26.5120   42.8380  186.8580 H   0  0  0  0  0  0  0  0  0  0  0  0
   26.6930   41.1180  187.0660 H   0  0  0  0  0  0  0  0  0  0  0  0
   25.5040   37.0300  179.4080 H   0  0  0  0  0  0  0  0  0  0  0  0
   27.4300   39.4610  180.7310 H   0  0  0  0  0  0  0  0  0  0  0  0
   27.1070   39.1750  182.7560 N   0  0  0  0  0  0  0  0  0  0  0  0
   27.0180   39.2160  185.0040 N   0  0  0  0  0  2  0  0  0  0  0  0
   26.8600   41.5540  182.3030 N   0  0  0  0  0  2  0  0  0  0  0  0
   26.6290   42.8420  184.3280 N   0  0  0  0  0  2  0  0  0  0  0  0
   26.6350   41.9190  186.4460 N   0  0  0  0  0  0  0  0  0  0  0  0
   25.9240   38.1560  181.0230 O   0  0  0  0  0  0  0  0  0  0  0  0
   29.4850   37.9250  180.9930 O   0  0  0  0  0  0  0  0  0  0  0  0
   27.9090   37.3070  178.8220 O   0  0  0  0  0  0  0  0  0  0  0  0
  1  2  1  0
  1 13  1  0
  1 15  1  0
  2  3  1  0
  2 14  1  0
  2 17  1  0
  3  4  1  0
  3 16  1  0
  3 18  1  0
  4  7  1  0
  4 27  1  0
  4 34  1  0
  5  6  1  0
  5 28  1  0
  5 29  1  0
  5 34  1  0
  6  7  1  0
  6 20  1  0
  6 35  1  0
  7 19  1  0
  7 36  1  0
  8 24  1  0
  8 29  1  0
  8 30  1  0
  9 10  1  0
  9 12  1  0
  9 30  1  0
 10 29  1  0
 10 31  1  0
 11 23  1  0
 11 31  1  0
 11 32  1  0
 12 32  1  0
 12 33  1  0
 21 36  1  0
 22 35  1  0
 25 33  1  0
 26 33  1  0
M  END
$$$$
