5lgr_E_LPD_102
     RDKit          3D

 17 29  0  0  0  0  0  0  0  0999 V2000
   50.7470   17.8430  140.3700 C   0  0  0  0  0  0  0  0  0  0  0  0
   50.5860   17.9010  138.8520 C   0  0  0  0  0  5  0  0  0  0  0  0
   51.7440   17.1840  138.1450 C   0  0  0  0  0  6  0  0  0  0  0  0
   51.9390   19.5140  137.7440 C   0  0  0  0  0  6  0  0  0  0  0  0
   52.7730   18.2730  138.0220 C   0  0  0  0  0  0  0  0  0  0  0  0
   49.6580   17.3860  138.6080 H   0  0  0  0  0  0  0  0  0  0  0  0
   52.1260   16.3320  138.7060 H   0  0  0  0  0  2  0  0  0  0  0  0
   51.4210   16.7850  137.1850 H   0  0  0  0  0  2  0  0  0  0  0  0
   51.9340   19.7460  136.6800 H   0  0  0  0  0  2  0  0  0  0  0  0
   52.3480   20.4080  138.2130 H   0  0  0  0  0  2  0  0  0  0  0  0
   53.3830   18.4020  138.9160 Hg  0  0  0  0  0  9  0  0  0  0  0  0
   53.5180   18.0750  137.2530 Hg  0  0  0  0  0  6  0  0  0  0  0  0
   50.6510   16.5340  141.9430 H   0  0  0  0  0  0  0  0  0  0  0  0
   50.3270   15.8260  140.4170 H   0  0  0  0  0  0  0  0  0  0  0  0
   50.6080   19.2810  138.3430 N   0  0  0  0  0  0  0  0  0  0  0  0
   50.5630   16.6630  140.9400 N   0  0  0  0  0  0  0  0  0  0  0  0
   51.0420   18.8610  141.0020 O   0  0  0  0  0  1  0  0  0  0  0  0
  1  2  1  0
  1 11  1  0
  1 16  1  0
  1 17  1  0
  2  3  1  0
  2  6  1  0
  2 11  1  0
  2 15  1  0
  3  5  1  0
  3  7  1  0
  3  8  1  0
  3 11  1  0
  3 12  1  0
  4  5  1  0
  4  9  1  0
  4 10  1  0
  4 11  1  0
  4 12  1  0
  4 15  1  0
  5 11  1  0
  5 12  1  0
  7 11  1  0
  8 12  1  0
  9 12  1  0
 10 11  1  0
 11 12  1  0
 11 15  1  0
 13 16  1  0
 14 16  1  0
M  END
$$$$
