5lgs_E_QVR_1001
     RDKit          3D

 34 36  0  0  0  0  0  0  0  0999 V2000
   52.4660   32.4560  130.6780 C   0  0  0  0  0  3  0  0  0  0  0  0
   52.0750   33.7270  131.3680 C   0  0  0  0  0  3  0  0  0  0  0  0
   51.3000   34.6580  130.8460 C   0  0  0  0  0  3  0  0  0  0  0  0
   50.9840   35.8800  131.6450 C   0  0  0  0  0  0  0  0  0  0  0  0
   50.1850   37.7860  130.5510 C   0  0  0  0  0  0  0  0  0  0  0  0
   49.0170   36.8210  130.7270 C   0  0  0  0  0  0  0  0  0  0  0  0
   49.4960   36.0480  131.9550 C   0  0  0  0  0  0  0  0  0  0  0  0
   50.3760   37.5980  128.0290 C   0  0  0  0  0  3  0  0  0  0  0  0
   50.6450   39.6240  127.4580 C   0  0  0  0  0  3  0  0  0  0  0  0
   50.5250   39.6260  128.8380 C   0  0  0  0  0  3  0  0  0  0  0  0
   50.7850   41.8100  128.9500 C   0  0  0  0  0  3  0  0  0  0  0  0
   50.8530   40.8720  126.8370 C   0  0  0  0  0  3  0  0  0  0  0  0
   52.4800   33.8540  132.3710 H   0  0  0  0  0  0  0  0  0  0  0  0
   51.5700   32.0700  130.1940 H   0  0  0  0  0  0  0  0  0  0  0  0
   53.1820   32.6570  129.8820 H   0  0  0  0  0  0  0  0  0  0  0  0
   50.8720   34.5830  129.8480 H   0  0  0  0  0  0  0  0  0  0  0  0
   48.9650   35.1130  132.1250 H   0  0  0  0  0  0  0  0  0  0  0  0
   48.9200   36.1370  129.8850 H   0  0  0  0  0  0  0  0  0  0  0  0
   49.8280   37.6100  133.1270 H   0  0  0  0  0  0  0  0  0  0  0  0
   48.0260   38.4780  130.9390 H   0  0  0  0  0  0  0  0  0  0  0  0
   50.8490   42.7300  129.5290 H   0  0  0  0  0  0  0  0  0  0  0  0
   50.2610   36.5160  128.0120 H   0  0  0  0  0  0  0  0  0  0  0  0
   50.9550   40.2580  124.8650 H   0  0  0  0  0  0  0  0  0  0  0  0
   51.1390   41.9530  125.1150 H   0  0  0  0  0  0  0  0  0  0  0  0
   51.5950   35.8910  132.5460 H   0  0  0  0  0  0  0  0  0  0  0  0
   50.1290   38.6360  131.2290 H   0  0  0  0  0  0  0  0  0  0  0  0
   50.3510   38.3100  129.1980 N   0  0  0  0  0  0  0  0  0  0  0  0
   50.5480   38.3360  126.9570 N   0  0  0  0  0  2  0  0  0  0  0  0
   50.5820   40.6890  129.6470 N   0  0  0  0  0  2  0  0  0  0  0  0
   50.9200   41.9640  127.6310 N   0  0  0  0  0  2  0  0  0  0  0  0
   50.9910   41.0340  125.5190 N   0  0  0  0  0  0  0  0  0  0  0  0
   51.3490   37.0580  130.8990 O   0  0  0  0  0  0  0  0  0  0  0  0
   47.7950   37.5120  130.9570 O   0  0  0  0  0  0  0  0  0  0  0  0
   49.2900   36.7760  133.1610 O   0  0  0  0  0  0  0  0  0  0  0  0
  1  2  1  0
  1 14  1  0
  1 15  1  0
  2  3  1  0
  2 13  1  0
  3  4  1  0
  3 16  1  0
  4  7  1  0
  4 25  1  0
  4 32  1  0
  5  6  1  0
  5 26  1  0
  5 27  1  0
  5 32  1  0
  6  7  1  0
  6 18  1  0
  6 33  1  0
  7 17  1  0
  7 34  1  0
  8 22  1  0
  8 27  1  0
  8 28  1  0
  9 10  1  0
  9 12  1  0
  9 28  1  0
 10 27  1  0
 10 29  1  0
 11 21  1  0
 11 29  1  0
 11 30  1  0
 12 30  1  0
 12 31  1  0
 19 34  1  0
 20 33  1  0
 23 31  1  0
 24 31  1  0
M  END
$$$$
