5lkj_C_6YB_501
     RDKit          3D

 59 77  0  0  0  0  0  0  0  0999 V2000
   23.3230   35.8320  173.5380 C   0  0  0  0  0  3  0  0  0  0  0  0
   27.2030   39.2360  180.2180 C   0  0  0  0  0  0  0  0  0  0  0  0
   25.8030   34.2130  177.5980 C   0  0  0  0  0  5  0  0  0  0  0  0
   24.7990   33.5590  178.5200 C   0  0  0  0  0  5  0  0  0  0  0  0
   24.8180   31.5800  180.1500 C   0  0  0  0  0  3  0  0  0  0  0  0
   26.8470   43.2400  181.9270 C   0  0  0  0  0  3  0  0  0  0  0  0
   28.3500   38.2360  180.1740 C   0  0  0  0  0  0  0  0  0  0  0  0
   28.0640   37.3810  179.0060 C   0  0  0  0  0  0  0  0  0  0  0  0
   26.9440   40.9060  182.0080 C   0  0  0  0  0  3  0  0  0  0  0  0
   26.6170   37.5760  178.6810 C   0  0  0  0  0  0  0  0  0  0  0  0
   26.7880   40.9430  183.3970 C   0  0  0  0  0  3  0  0  0  0  0  0
   25.7680   36.3090  178.8680 C   0  0  0  0  0  5  0  0  0  0  0  0
   26.6640   42.1920  184.0150 C   0  0  0  0  0  3  0  0  0  0  0  0
   26.9500   38.8400  182.7410 C   0  0  0  0  0  3  0  0  0  0  0  0
   23.6640   36.9360  174.4980 C   0  0  0  0  0  6  0  0  0  0  0  0
   24.8430   36.5450  175.4270 C   0  0  0  0  0  6  0  0  0  0  0  0
   24.4250   36.0130  176.7790 C   0  0  0  0  0  0  0  0  0  0  0  0
   22.4450   38.2130  175.3020 H   0  0  0  0  0  0  0  0  0  0  0  0
   27.4530   40.0580  179.7020 H   0  0  0  0  0  0  0  0  0  0  0  0
   25.6980   33.8310  176.7120 H   0  0  0  0  0  2  0  0  0  0  0  0
   26.7040   34.0180  177.9220 H   0  0  0  0  0  0  0  0  0  0  0  0
   26.3960   32.7860  179.6600 H   0  0  0  0  0  0  0  0  0  0  0  0
   24.2810   34.2760  179.0330 H   0  0  0  0  0  0  0  0  0  0  0  0
   24.1820   33.0220  177.9900 H   0  0  0  0  0  0  0  0  0  0  0  0
   22.9800   31.9000  179.3020 H   0  0  0  0  0  0  0  0  0  0  0  0
   25.0200   30.1470  181.3850 H   0  0  0  0  0  0  0  0  0  0  0  0
   21.7840   36.9200  174.9360 H   0  0  0  0  0  0  0  0  0  0  0  0
   28.3630   37.6950  180.9850 H   0  0  0  0  0  0  0  0  0  0  0  0
   29.6500   39.3800  179.2620 H   0  0  0  0  0  0  0  0  0  0  0  0
   26.8670   44.0440  181.4160 H   0  0  0  0  0  0  0  0  0  0  0  0
   28.2510   36.4540  179.2220 H   0  0  0  0  0  0  0  0  0  0  0  0
   28.5640   38.5610  177.6650 H   0  0  0  0  0  0  0  0  0  0  0  0
   22.9570   30.6430  180.3250 H   0  0  0  0  0  0  0  0  0  0  0  0
   26.5440   37.8500  177.7580 H   0  0  0  0  0  0  0  0  0  0  0  0
   24.8930   36.5600  179.2030 H   0  0  0  0  0  2  0  0  0  0  0  0
   26.1880   35.7060  179.4750 H   0  0  0  0  0  0  0  0  0  0  0  0
   26.4370   43.1070  185.8810 H   0  0  0  0  0  0  0  0  0  0  0  0
   26.4550   41.5630  185.9880 H   0  0  0  0  0  0  0  0  0  0  0  0
   26.9940   37.8870  182.7640 H   0  0  0  0  0  0  0  0  0  0  0  0
   23.9250   37.6890  173.9970 H   0  0  0  0  0  0  0  0  0  0  0  0
   25.3930   35.8750  174.9720 H   0  0  0  0  0  2  0  0  0  0  0  0
   25.3740   37.3230  175.5740 H   0  0  0  0  0  2  0  0  0  0  0  0
   23.8660   35.2200  176.6650 Hg  0  0  0  0  0 10  0  0  0  0  0  0
   23.9510   36.6770  177.2510 Hg  0  0  0  0  0  9  0  0  0  0  0  0
   22.5360   37.2980  175.2920 N   0  0  0  0  0  5  0  0  0  0  0  0
   26.6960   43.3130  183.2580 N   0  0  0  0  0  2  0  0  0  0  0  0
   25.5230   32.6570  179.4930 N   0  0  0  0  0  0  0  0  0  0  0  0
   23.4220   31.3590  179.8850 N   0  0  0  0  0  0  0  0  0  0  0  0
   25.4480   30.7990  180.9860 N   0  0  0  0  0  2  0  0  0  0  0  0
   26.9700   42.0480  181.2930 N   0  0  0  0  0  2  0  0  0  0  0  0
   26.4960   42.2960  185.4920 N   0  0  0  0  0  0  0  0  0  0  0  0
   26.7980   39.6570  183.8240 N   0  0  0  0  0  2  0  0  0  0  0  0
   27.0580   39.6090  181.6350 N   0  0  0  0  0  0  0  0  0  0  0  0
   25.6390   35.6620  177.5090 N   0  0  0  0  0  5  0  0  0  0  0  0
   22.2620   35.1700  173.6960 O   0  0  0  0  0  1  0  0  0  0  0  0
   29.6310   38.8950  180.0450 O   0  0  0  0  0  0  0  0  0  0  0  0
   28.8140   37.7810  177.9110 O   0  0  0  0  0  0  0  0  0  0  0  0
   26.0860   38.6000  179.5360 O   0  0  0  0  0  0  0  0  0  0  0  0
   24.1130   35.5650  172.5580 O   0  0  0  0  0  1  0  0  0  0  0  0
  1 15  1  0
  1 55  1  0
  1 59  1  0
  2  7  1  0
  2 19  1  0
  2 53  1  0
  2 58  1  0
  3  4  1  0
  3 20  1  0
  3 21  1  0
  3 43  1  0
  3 54  1  0
  4 23  1  0
  4 24  1  0
  4 43  1  0
  4 47  1  0
  5 47  1  0
  5 48  1  0
  5 49  1  0
  6 30  1  0
  6 46  1  0
  6 50  1  0
  7  8  1  0
  7 28  1  0
  7 56  1  0
  8 10  1  0
  8 31  1  0
  8 57  1  0
  9 11  1  0
  9 50  1  0
  9 53  1  0
 10 12  1  0
 10 34  1  0
 10 58  1  0
 11 13  1  0
 11 52  1  0
 12 35  1  0
 12 36  1  0
 12 44  1  0
 12 54  1  0
 13 46  1  0
 13 51  1  0
 14 39  1  0
 14 52  1  0
 14 53  1  0
 15 16  1  0
 15 40  1  0
 15 43  1  0
 15 44  1  0
 15 45  1  0
 16 17  1  0
 16 41  1  0
 16 42  1  0
 16 43  1  0
 16 44  1  0
 17 43  1  0
 17 44  1  0
 17 54  1  0
 18 45  1  0
 20 43  1  0
 22 47  1  0
 25 48  1  0
 26 49  1  0
 27 45  1  0
 29 56  1  0
 32 57  1  0
 33 48  1  0
 35 44  1  0
 37 51  1  0
 38 51  1  0
 41 43  1  0
 42 44  1  0
 43 44  1  0
 43 45  1  0
 43 54  1  0
 44 45  1  0
 44 54  1  0
M  END
$$$$
