5lkj_B_P33_505
     RDKit          3D

 52 51  0  0  0  0  0  0  0  0999 V2000
   17.1460   35.7670  106.5490 C   0  0  0  0  0  0  0  0  0  0  0  0
   17.6170   36.4970  107.8050 C   0  0  0  0  0  0  0  0  0  0  0  0
   19.4650   37.6360  108.6920 C   0  0  0  0  0  0  0  0  0  0  0  0
   20.7540   38.3340  108.2590 C   0  0  0  0  0  0  0  0  0  0  0  0
   23.0510   37.8860  108.3240 C   0  0  0  0  0  0  0  0  0  0  0  0
   24.1060   37.0530  107.5860 C   0  0  0  0  0  0  0  0  0  0  0  0
    8.8400   32.1150  106.6500 C   0  0  0  0  0  0  0  0  0  0  0  0
   24.2990   35.0740  106.3480 C   0  0  0  0  0  0  0  0  0  0  0  0
   23.7620   34.4060  105.0810 C   0  0  0  0  0  0  0  0  0  0  0  0
    9.6620   32.6690  107.8140 C   0  0  0  0  0  0  0  0  0  0  0  0
   11.3950   34.2200  107.3430 C   0  0  0  0  0  0  0  0  0  0  0  0
   11.8100   33.6930  105.9690 C   0  0  0  0  0  0  0  0  0  0  0  0
   13.9140   34.6870  105.7100 C   0  0  0  0  0  0  0  0  0  0  0  0
   15.3970   34.3630  105.8470 C   0  0  0  0  0  0  0  0  0  0  0  0
   17.0450   36.3980  105.8190 H   0  0  0  0  0  0  0  0  0  0  0  0
   17.7850   35.0790  106.3070 H   0  0  0  0  0  0  0  0  0  0  0  0
   17.6440   35.8760  108.5510 H   0  0  0  0  0  0  0  0  0  0  0  0
   17.0070   37.2230  108.0080 H   0  0  0  0  0  0  0  0  0  0  0  0
   19.6650   36.9730  109.3710 H   0  0  0  0  0  0  0  0  0  0  0  0
   18.8440   38.2910  109.0480 H   0  0  0  0  0  0  0  0  0  0  0  0
   21.0220   38.9700  108.9400 H   0  0  0  0  0  0  0  0  0  0  0  0
   20.6040   38.8000  107.4220 H   0  0  0  0  0  0  0  0  0  0  0  0
   23.2340   37.8610  109.2760 H   0  0  0  0  0  0  0  0  0  0  0  0
   23.0950   38.8040  108.0130 H   0  0  0  0  0  0  0  0  0  0  0  0
   24.7100   37.6480  107.1160 H   0  0  0  0  0  0  0  0  0  0  0  0
   24.6090   36.5320  108.2310 H   0  0  0  0  0  0  0  0  0  0  0  0
   25.2130   35.3630  106.1990 H   0  0  0  0  0  0  0  0  0  0  0  0
   24.2760   34.4410  107.0830 H   0  0  0  0  0  0  0  0  0  0  0  0
    8.8750   31.1460  106.6570 H   0  0  0  0  0  0  0  0  0  0  0  0
   22.8570   34.7110  104.9130 H   0  0  0  0  0  0  0  0  0  0  0  0
   24.3280   34.6380  104.3280 H   0  0  0  0  0  0  0  0  0  0  0  0
   24.3770   32.6690  104.7800 H   0  0  0  0  0  0  0  0  0  0  0  0
    9.1940   32.4500  105.8120 H   0  0  0  0  0  0  0  0  0  0  0  0
    9.1310   32.6550  108.6260 H   0  0  0  0  0  0  0  0  0  0  0  0
   10.4600   32.1320  107.9360 H   0  0  0  0  0  0  0  0  0  0  0  0
   11.5750   35.1710  107.3960 H   0  0  0  0  0  0  0  0  0  0  0  0
   11.8900   33.7540  108.0350 H   0  0  0  0  0  0  0  0  0  0  0  0
   11.3720   32.8440  105.7990 H   0  0  0  0  0  0  0  0  0  0  0  0
   11.5610   34.3330  105.2850 H   0  0  0  0  0  0  0  0  0  0  0  0
   13.7270   34.9970  104.8100 H   0  0  0  0  0  0  0  0  0  0  0  0
   13.6660   35.3710  106.3510 H   0  0  0  0  0  0  0  0  0  0  0  0
   15.5100   33.4320  106.0950 H   0  0  0  0  0  0  0  0  0  0  0  0
   15.8530   34.5400  105.0100 H   0  0  0  0  0  0  0  0  0  0  0  0
    7.0550   32.2890  106.1350 H   0  0  0  0  0  0  0  0  0  0  0  0
    7.5130   32.5400  106.8050 O   0  0  0  0  0  0  0  0  0  0  0  0
   15.9110   35.1870  106.8510 O   0  0  0  0  0  0  0  0  0  0  0  0
   18.8980   37.0100  107.5760 O   0  0  0  0  0  0  0  0  0  0  0  0
   21.7660   37.3790  108.0870 O   0  0  0  0  0  0  0  0  0  0  0  0
   23.5020   36.1850  106.6640 O   0  0  0  0  0  0  0  0  0  0  0  0
   23.7640   33.0140  105.2580 O   0  0  0  0  0  0  0  0  0  0  0  0
   10.0230   33.9890  107.5090 O   0  0  0  0  0  0  0  0  0  0  0  0
   13.1960   33.5150  105.9650 O   0  0  0  0  0  0  0  0  0  0  0  0
  1  2  1  0
  1 15  1  0
  1 16  1  0
  1 46  1  0
  2 17  1  0
  2 18  1  0
  2 47  1  0
  3  4  1  0
  3 19  1  0
  3 20  1  0
  3 47  1  0
  4 21  1  0
  4 22  1  0
  4 48  1  0
  5  6  1  0
  5 23  1  0
  5 24  1  0
  5 48  1  0
  6 25  1  0
  6 26  1  0
  6 49  1  0
  7 10  1  0
  7 29  1  0
  7 33  1  0
  7 45  1  0
  8  9  1  0
  8 27  1  0
  8 28  1  0
  8 49  1  0
  9 30  1  0
  9 31  1  0
  9 50  1  0
 10 34  1  0
 10 35  1  0
 10 51  1  0
 11 12  1  0
 11 36  1  0
 11 37  1  0
 11 51  1  0
 12 38  1  0
 12 39  1  0
 12 52  1  0
 13 14  1  0
 13 40  1  0
 13 41  1  0
 13 52  1  0
 14 42  1  0
 14 43  1  0
 14 46  1  0
 32 50  1  0
 44 45  1  0
M  END
$$$$
