5lv2_F_LHB_501
     RDKit          3D

 54 57  0  0  0  0  0  0  0  0999 V2000
  -53.2080   13.0740   91.0460 C   0  0  0  0  0  3  0  0  0  0  0  0
  -47.5540   10.9770   86.6600 C   0  0  0  0  0  0  0  0  0  0  0  0
  -47.1210   12.1380   84.5330 C   0  0  0  0  0  0  0  0  0  0  0  0
  -45.9510   11.5040   83.7200 C   0  0  0  0  0  3  0  0  0  0  0  0
  -44.5570   11.8200   83.9060 C   0  0  0  0  0  3  0  0  0  0  0  0
  -43.8780   10.2900   82.2690 C   0  0  0  0  0  3  0  0  0  0  0  0
  -46.2020   10.5750   82.7750 C   0  0  0  0  0  3  0  0  0  0  0  0
  -45.6080    8.9490   81.0630 C   0  0  0  0  0  0  0  0  0  0  0  0
  -44.6940    9.1480   78.9000 C   0  0  0  0  0  0  0  0  0  0  0  0
  -52.2920   12.4790   90.1610 C   0  0  0  0  0  3  0  0  0  0  0  0
  -51.0660   12.0960   90.6890 C   0  0  0  0  0  3  0  0  0  0  0  0
  -51.6150   12.8080   92.7000 C   0  0  0  0  0  3  0  0  0  0  0  0
  -51.1820   11.6620   88.5490 C   0  0  0  0  0  3  0  0  0  0  0  0
  -49.0030   11.0360   89.6810 C   0  0  0  0  0  0  0  0  0  0  0  0
  -47.2360   10.9750   88.1430 C   0  0  0  0  0  0  0  0  0  0  0  0
  -47.4150    9.5830   88.7450 C   0  0  0  0  0  0  0  0  0  0  0  0
  -48.8770    9.6010   89.1770 C   0  0  0  0  0  0  0  0  0  0  0  0
  -51.3880   12.9650   93.7540 H   0  0  0  0  0  0  0  0  0  0  0  0
  -48.6250   11.1160   86.5190 H   0  0  0  0  0  0  0  0  0  0  0  0
  -45.9090   12.1950   86.2380 H   0  0  0  0  0  0  0  0  0  0  0  0
  -47.3210   13.1390   84.1540 H   0  0  0  0  0  0  0  0  0  0  0  0
  -48.0530   11.6090   84.3350 H   0  0  0  0  0  0  0  0  0  0  0  0
  -54.7490   13.3790   89.7310 H   0  0  0  0  0  0  0  0  0  0  0  0
  -55.0610   13.9110   91.3570 H   0  0  0  0  0  0  0  0  0  0  0  0
  -47.2280   10.2820   82.5570 H   0  0  0  0  0  0  0  0  0  0  0  0
  -44.9210   13.2330   85.3460 H   0  0  0  0  0  0  0  0  0  0  0  0
  -43.2510   13.0130   84.9730 H   0  0  0  0  0  0  0  0  0  0  0  0
  -44.8350    8.1840   81.0150 H   0  0  0  0  0  0  0  0  0  0  0  0
  -50.8820   11.3170   87.5600 H   0  0  0  0  0  0  0  0  0  0  0  0
  -46.5050    8.4420   81.4160 H   0  0  0  0  0  0  0  0  0  0  0  0
  -44.7830    9.6750   77.9510 H   0  0  0  0  0  0  0  0  0  0  0  0
  -44.8410    8.0820   78.7340 H   0  0  0  0  0  0  0  0  0  0  0  0
  -43.6930    9.3090   79.2970 H   0  0  0  0  0  0  0  0  0  0  0  0
  -48.6300   11.1520   90.6980 H   0  0  0  0  0  0  0  0  0  0  0  0
  -46.2650   11.4220   88.3470 H   0  0  0  0  0  0  0  0  0  0  0  0
  -47.2510    8.7980   88.0080 H   0  0  0  0  0  0  0  0  0  0  0  0
  -49.5520    9.3770   88.3520 H   0  0  0  0  0  0  0  0  0  0  0  0
  -49.9430    8.9130   90.7080 H   0  0  0  0  0  0  0  0  0  0  0  0
  -46.4520   10.2320   90.3200 H   0  0  0  0  0  0  0  0  0  0  0  0
  -47.3410    9.9980   86.2320 H   0  0  0  0  0  0  0  0  0  0  0  0
  -50.6670   12.2300   91.9570 N   0  0  0  0  0  2  0  0  0  0  0  0
  -52.8250   13.2300   92.3330 N   0  0  0  0  0  2  0  0  0  0  0  0
  -50.3550   11.5720   89.6400 N   0  0  0  0  0  0  0  0  0  0  0  0
  -52.3530   12.1960   88.8070 N   0  0  0  0  0  2  0  0  0  0  0  0
  -46.8850   12.0880   85.9830 N   0  0  0  0  0  0  0  0  0  0  0  0
  -54.4280   13.4850   90.6880 N   0  0  0  0  0  0  0  0  0  0  0  0
  -43.5860   11.2300   83.2040 N   0  0  0  0  0  2  0  0  0  0  0  0
  -45.2150    9.9600   82.0530 N   0  0  0  0  0  0  0  0  0  0  0  0
  -44.2160   12.7490   84.8000 N   0  0  0  0  0  0  0  0  0  0  0  0
  -48.1790   11.8210   88.8370 O   0  0  0  0  0  0  0  0  0  0  0  0
  -49.1220    8.6560   90.2130 O   0  0  0  0  0  0  0  0  0  0  0  0
  -46.5580    9.3590   89.8590 O   0  0  0  0  0  0  0  0  0  0  0  0
  -45.7460    9.4950   79.7810 O   0  0  0  0  0  0  0  0  0  0  0  0
  -43.0060    9.7170   81.6140 O   0  0  0  0  0  1  0  0  0  0  0  0
  1 10  1  0
  1 42  1  0
  1 46  1  0
  2 15  1  0
  2 19  1  0
  2 40  1  0
  2 45  1  0
  3  4  1  0
  3 21  1  0
  3 22  1  0
  3 45  1  0
  4  5  1  0
  4  7  1  0
  5 47  1  0
  5 49  1  0
  6 47  1  0
  6 48  1  0
  6 54  1  0
  7 25  1  0
  7 48  1  0
  8 28  1  0
  8 30  1  0
  8 48  1  0
  8 53  1  0
  9 31  1  0
  9 32  1  0
  9 33  1  0
  9 53  1  0
 10 11  1  0
 10 44  1  0
 11 41  1  0
 11 43  1  0
 12 18  1  0
 12 41  1  0
 12 42  1  0
 13 29  1  0
 13 43  1  0
 13 44  1  0
 14 17  1  0
 14 34  1  0
 14 43  1  0
 14 50  1  0
 15 16  1  0
 15 35  1  0
 15 50  1  0
 16 17  1  0
 16 36  1  0
 16 52  1  0
 17 37  1  0
 17 51  1  0
 20 45  1  0
 23 46  1  0
 24 46  1  0
 26 49  1  0
 27 49  1  0
 38 51  1  0
 39 52  1  0
M  END
$$$$
