5lv2_E_SAO_501
     RDKit          3D

 46 62  0  0  0  0  0  0  0  0999 V2000
  -60.1480  -18.3710   70.5040 C   0  0  0  0  0  0  0  0  0  0  0  0
  -63.7620  -14.4980   76.9420 C   0  0  0  0  0  0  0  0  0  0  0  0
  -67.6990  -15.0800   78.7830 C   0  0  0  0  0  3  0  0  0  0  0  0
  -62.7820  -13.3360   76.7860 C   0  0  0  0  0  0  0  0  0  0  0  0
  -61.8970  -13.7830   75.6110 C   0  0  0  0  0  0  0  0  0  0  0  0
  -65.5030  -14.8850   78.7520 C   0  0  0  0  0  3  0  0  0  0  0  0
  -62.0600  -15.3060   75.5660 C   0  0  0  0  0  0  0  0  0  0  0  0
  -65.4100  -15.1100   80.1170 C   0  0  0  0  0  3  0  0  0  0  0  0
  -60.7610  -16.0190   75.8900 C   0  0  0  0  0  5  0  0  0  0  0  0
  -66.6140  -15.3320   80.8100 C   0  0  0  0  0  3  0  0  0  0  0  0
  -63.4240  -14.8370   79.4270 C   0  0  0  0  0  3  0  0  0  0  0  0
  -61.3250  -17.6240   71.1420 C   0  0  0  0  0  6  0  0  0  0  0  0
  -60.8410  -16.6180   72.1920 C   0  0  0  0  0  6  0  0  0  0  0  0
  -60.1810  -17.2660   73.4040 C   0  0  0  0  0  0  0  0  0  0  0  0
  -64.6510  -14.4050   76.3210 H   0  0  0  0  0  0  0  0  0  0  0  0
  -68.6600  -15.0730   78.2720 H   0  0  0  0  0  0  0  0  0  0  0  0
  -62.2230  -13.0760   77.6830 H   0  0  0  0  0  0  0  0  0  0  0  0
  -63.0730  -18.7870   71.1560 H   0  0  0  0  0  0  0  0  0  0  0  0
  -60.8700  -13.4290   75.6870 H   0  0  0  0  0  0  0  0  0  0  0  0
  -62.4550  -15.6670   74.6180 H   0  0  0  0  0  0  0  0  0  0  0  0
  -60.9090  -17.0720   76.1220 H   0  0  0  0  0  2  0  0  0  0  0  0
  -60.2780  -15.5930   76.7680 H   0  0  0  0  0  0  0  0  0  0  0  0
  -62.3400  -14.7430   79.3940 H   0  0  0  0  0  0  0  0  0  0  0  0
  -61.8370  -17.0910   70.3420 H   0  0  0  0  0  0  0  0  0  0  0  0
  -61.7060  -16.0420   72.5170 H   0  0  0  0  0  2  0  0  0  0  0  0
  -60.1860  -15.8730   71.7440 H   0  0  0  0  0  0  0  0  0  0  0  0
  -59.3160  -17.8790   73.1520 Hg  0  0  0  0  0  7  0  0  0  0  0  0
  -60.8660  -17.9150   73.9480 Hg  0  0  0  0  0 10  0  0  0  0  0  0
  -62.5950  -18.3400   72.6680 H   0  0  0  0  0  2  0  0  0  0  0  0
  -61.7120  -19.4530   71.8250 H   0  0  0  0  0  0  0  0  0  0  0  0
  -65.8360  -15.5650   82.6890 H   0  0  0  0  0  0  0  0  0  0  0  0
  -67.5710  -15.7090   82.5940 H   0  0  0  0  0  0  0  0  0  0  0  0
  -64.1090  -11.8950   77.1770 H   0  0  0  0  0  0  0  0  0  0  0  0
  -62.8160  -12.3700   74.5730 H   0  0  0  0  0  0  0  0  0  0  0  0
  -62.2670  -18.6070   71.7460 N   0  0  0  0  0  5  0  0  0  0  0  0
  -67.7620  -15.3150   80.0970 N   0  0  0  0  0  2  0  0  0  0  0  0
  -66.6230  -14.8540   78.0210 N   0  0  0  0  0  2  0  0  0  0  0  0
  -66.6820  -15.5520   82.1280 N   0  0  0  0  0  0  0  0  0  0  0  0
  -64.0880  -15.0750   80.5310 N   0  0  0  0  0  2  0  0  0  0  0  0
  -64.2140  -14.7140   78.3130 N   0  0  0  0  0  0  0  0  0  0  0  0
  -59.3930  -17.7200   69.7460 O   0  0  0  0  0  1  0  0  0  0  0  0
  -63.4740  -12.1350   76.4520 O   0  0  0  0  0  0  0  0  0  0  0  0
  -62.3120  -13.2030   74.3800 O   0  0  0  0  0  0  0  0  0  0  0  0
  -63.0700  -15.6560   76.5320 O   0  0  0  0  0  0  0  0  0  0  0  0
  -60.0270  -19.5830   70.7900 O   0  0  0  0  0  0  0  0  0  0  0  0
  -59.6560  -15.8840   74.4580 S   0  0  0  0  0  4  0  0  0  0  0  0
  1 12  1  0
  1 27  1  0
  1 41  1  0
  1 45  1  0
  2  4  1  0
  2 15  1  0
  2 40  1  0
  2 44  1  0
  3 16  1  0
  3 36  1  0
  3 37  1  0
  4  5  1  0
  4 17  1  0
  4 42  1  0
  5  7  1  0
  5 19  1  0
  5 43  1  0
  6  8  1  0
  6 37  1  0
  6 40  1  0
  7  9  1  0
  7 20  1  0
  7 44  1  0
  8 10  1  0
  8 39  1  0
  9 21  1  0
  9 22  1  0
  9 28  1  0
  9 46  1  0
 10 36  1  0
 10 38  1  0
 11 23  1  0
 11 39  1  0
 11 40  1  0
 12 13  1  0
 12 24  1  0
 12 27  1  0
 12 28  1  0
 12 35  1  0
 13 14  1  0
 13 25  1  0
 13 26  1  0
 13 27  1  0
 13 28  1  0
 14 27  1  0
 14 28  1  0
 14 46  1  0
 18 35  1  0
 21 28  1  0
 25 28  1  0
 27 28  1  0
 27 45  1  0
 27 46  1  0
 28 29  1  0
 28 35  1  0
 28 46  1  0
 29 35  1  0
 30 35  1  0
 31 38  1  0
 32 38  1  0
 33 42  1  0
 34 43  1  0
M  END
$$$$
