5u4x_B_7VM_502
     RDKit          3D

 34 37  0  0  0  0  0  0  0  0999 V2000
  -14.5550   17.2670   27.1160 C   0  0  0  0  0  1  0  0  0  0  0  0
  -14.8460   19.7640   27.5850 C   0  0  0  0  0  2  0  0  0  0  0  0
   -8.0830   18.9620   23.1090 C   0  0  0  0  0  2  0  0  0  0  0  0
   -5.8260   18.0330   23.5070 C   0  0  0  0  0  1  0  0  0  0  0  0
   -6.5410   18.4610   21.2270 C   0  0  0  0  0  3  0  0  0  0  0  0
   -7.5210   19.0880   20.2950 C   0  0  0  0  0  3  0  0  0  0  0  0
   -8.2060   18.3140   19.3700 C   0  0  0  0  0  2  0  0  0  0  0  0
   -9.1420   18.8910   18.5320 C   0  0  0  0  0  2  0  0  0  0  0  0
   -9.4020   20.2450   18.5970 C   0  0  0  0  0  2  0  0  0  0  0  0
   -8.7080   21.0240   19.5120 C   0  0  0  0  0  3  0  0  0  0  0  0
   -8.3680   23.1860   20.4940 C   0  0  0  0  0  3  0  0  0  0  0  0
   -8.9850   23.2890   21.7370 C   0  0  0  0  0  2  0  0  0  0  0  0
  -13.5420   20.1530   26.9330 C   0  0  0  0  0  2  0  0  0  0  0  0
   -8.4550   24.1500   22.6840 C   0  0  0  0  0  2  0  0  0  0  0  0
   -7.3330   24.9070   22.3950 C   0  0  0  0  0  2  0  0  0  0  0  0
   -6.7120   24.7760   21.1680 C   0  0  0  0  0  2  0  0  0  0  0  0
   -7.2140   23.9040   20.2160 C   0  0  0  0  0  2  0  0  0  0  0  0
   -7.7760   20.4540   20.3670 C   0  0  0  0  0  2  0  0  0  0  0  0
   -9.1820   20.5340   24.7150 C   0  0  0  0  0  2  0  0  0  0  0  0
  -11.6250   22.1800   25.6060 C   0  0  0  0  0  2  0  0  0  0  0  0
  -12.8160   22.4770   26.5080 C   0  0  0  0  0  2  0  0  0  0  0  0
  -11.8160   21.2420   28.3250 C   0  0  0  0  0  2  0  0  0  0  0  0
  -10.5890   20.9110   27.4880 C   0  0  0  0  0  2  0  0  0  0  0  0
  -10.3520   21.9720   26.4150 C   0  0  0  0  0  3  0  0  0  0  0  0
   -9.1590   21.6360   25.5560 C   0  0  0  0  0  3  0  0  0  0  0  0
   -7.0260   22.1430   24.9070 C   0  0  0  0  0  2  0  0  0  0  0  0
   -6.9690   21.0570   24.0490 C   0  0  0  0  0  2  0  0  0  0  0  0
   -8.0680   20.2180   23.9490 C   0  0  0  0  0  3  0  0  0  0  0  0
  -15.3860   18.4700   27.1350 N   0  0  0  0  0  2  0  0  0  0  0  0
  -13.0180   21.4110   27.4970 N   0  0  0  0  0  0  0  0  0  0  0  0
   -8.0950   22.4420   25.6650 N   0  0  0  0  0  2  0  0  0  0  0  0
   -6.7800   18.5610   22.5470 N   0  0  0  0  0  0  0  0  0  0  0  0
   -8.9220   22.3950   19.4870 O   0  0  0  0  0  0  0  0  0  0  0  0
   -5.6470   17.7750   20.7750 O   0  0  0  0  0  1  0  0  0  0  0  0
  1 29  1  0
  2 13  1  0
  2 29  1  0
  3 28  1  0
  3 32  1  0
  4 32  1  0
  5  6  1  0
  5 32  1  0
  5 34  1  0
  6  7  1  0
  6 18  1  0
  7  8  1  0
  8  9  1  0
  9 10  1  0
 10 18  1  0
 10 33  1  0
 11 12  1  0
 11 17  1  0
 11 33  1  0
 12 14  1  0
 13 30  1  0
 14 15  1  0
 15 16  1  0
 16 17  1  0
 19 25  1  0
 19 28  1  0
 20 21  1  0
 20 24  1  0
 21 30  1  0
 22 23  1  0
 22 30  1  0
 23 24  1  0
 24 25  1  0
 25 31  1  0
 26 27  1  0
 26 31  1  0
 27 28  1  0
M  END
$$$$
