6arj_A_SAH_501
     RDKit          3D

 26 28  0  0  0  0  0  0  0  0999 V2000
  -14.5950   15.2470   14.6450 C   0  0  0  0  0  3  0  0  0  0  0  0
  -12.7740   23.1940   13.0730 C   0  0  0  0  0  3  0  0  0  0  0  0
  -14.7290   26.0030   10.2750 C   0  0  0  0  0  2  0  0  0  0  0  0
  -11.4440   23.0070   13.7830 C   0  0  0  0  0  3  0  0  0  0  0  0
  -11.4730   21.5070   14.0620 C   0  0  0  0  0  3  0  0  0  0  0  0
  -13.8970   25.2600   12.3260 C   0  0  0  0  0  3  0  0  0  0  0  0
  -12.9470   21.1550   14.1760 C   0  0  0  0  0  3  0  0  0  0  0  0
  -14.3220   26.5060   12.9760 C   0  0  0  0  0  3  0  0  0  0  0  0
  -13.3410   20.8060   15.6090 C   0  0  0  0  0  2  0  0  0  0  0  0
  -14.9840   27.5020   12.1060 C   0  0  0  0  0  3  0  0  0  0  0  0
  -13.3760   25.2150   14.4500 C   0  0  0  0  0  2  0  0  0  0  0  0
  -14.3970   16.3800   13.6780 C   0  0  0  0  0  3  0  0  0  0  0  0
  -13.4270   17.4290   14.2650 C   0  0  0  0  0  2  0  0  0  0  0  0
  -13.8310   18.0850   15.6140 C   0  0  0  0  0  2  0  0  0  0  0  0
  -15.7540   16.9340   13.3170 N   0  0  0  0  0  1  0  0  0  0  0  0
  -15.1540   27.1640   10.8110 N   0  0  0  0  0  2  0  0  0  0  0  0
  -14.1150   25.0550   11.0130 N   0  0  0  0  0  2  0  0  0  0  0  0
  -15.4140   28.7170   12.5710 N   0  0  0  0  0  1  0  0  0  0  0  0
  -13.9760   26.4170   14.2670 N   0  0  0  0  0  2  0  0  0  0  0  0
  -13.3290   24.5430   13.2780 N   0  0  0  0  0  0  0  0  0  0  0  0
  -13.7320   14.3700   14.7930 O   0  0  0  0  0  1  0  0  0  0  0  0
  -10.3760   23.3890   12.9270 O   0  0  0  0  0  1  0  0  0  0  0  0
  -10.9360   20.8030   12.9560 O   0  0  0  0  0  1  0  0  0  0  0  0
  -13.6540   22.3490   13.7910 O   0  0  0  0  0  0  0  0  0  0  0  0
  -15.6100   15.2020   15.3490 O   0  0  0  0  0  1  0  0  0  0  0  0
  -12.6440   19.2700   16.1960 S   0  0  0  0  0  0  0  0  0  0  0  0
  1 12  1  0
  1 21  1  0
  1 25  1  0
  2  4  1  0
  2 20  1  0
  2 24  1  0
  3 16  1  0
  3 17  1  0
  4  5  1  0
  4 22  1  0
  5  7  1  0
  5 23  1  0
  6  8  1  0
  6 17  1  0
  6 20  1  0
  7  9  1  0
  7 24  1  0
  8 10  1  0
  8 19  1  0
  9 26  1  0
 10 16  1  0
 10 18  1  0
 11 19  1  0
 11 20  1  0
 12 13  1  0
 12 15  1  0
 13 14  1  0
 14 26  1  0
M  END
$$$$
