6arv_A_BW7_502
     RDKit          3D

 30 33  0  0  0  0  0  0  0  0999 V2000
   -7.7890   24.3350   20.6950 C   0  0  0  0  0  1  0  0  0  0  0  0
   -7.6820   24.7590   22.1420 C   0  0  0  0  0  3  0  0  0  0  0  0
   -7.5910   26.3080   22.1920 C   0  0  0  0  0  1  0  0  0  0  0  0
   -4.5030   23.6420   23.3090 C   0  0  0  0  0  2  0  0  0  0  0  0
   -5.2490   22.6350   23.7640 C   0  0  0  0  0  3  0  0  0  0  0  0
   -4.9560   21.5070   24.4530 C   0  0  0  0  0  3  0  0  0  0  0  0
   -6.0100   20.6460   24.7820 C   0  0  0  0  0  2  0  0  0  0  0  0
   -7.3200   20.9600   24.3970 C   0  0  0  0  0  3  0  0  0  0  0  0
   -6.5150   22.9210   23.4000 C   0  0  0  0  0  3  0  0  0  0  0  0
   -8.4060   20.1110   24.6790 C   0  0  0  0  0  3  0  0  0  0  0  0
   -8.4360   19.3980   25.8680 C   0  0  0  0  0  2  0  0  0  0  0  0
   -9.5120   18.5580   26.1520 C   0  0  0  0  0  2  0  0  0  0  0  0
  -10.5650   18.4440   25.2560 C   0  0  0  0  0  2  0  0  0  0  0  0
  -10.5310   19.1400   24.0560 C   0  0  0  0  0  3  0  0  0  0  0  0
  -11.5520   19.5080   21.9100 C   0  0  0  0  0  2  0  0  0  0  0  0
  -12.8860   19.2390   21.2340 C   0  0  0  0  0  3  0  0  0  0  0  0
  -12.9800   20.0950   19.9520 C   0  0  0  0  0  2  0  0  0  0  0  0
   -9.4560   20.0000   23.7630 C   0  0  0  0  0  2  0  0  0  0  0  0
   -3.4530   19.8730   25.5040 C   0  0  0  0  0  2  0  0  0  0  0  0
   -2.1320   19.7860   26.2530 C   0  0  0  0  0  2  0  0  0  0  0  0
   -1.2590   21.8100   25.3000 C   0  0  0  0  0  2  0  0  0  0  0  0
   -2.5640   22.1410   24.5580 C   0  0  0  0  0  2  0  0  0  0  0  0
   -6.4980   24.0680   22.7430 N   0  0  0  0  0  0  0  0  0  0  0  0
   -5.3340   24.4880   22.6900 N   0  0  0  0  0  2  0  0  0  0  0  0
   -7.5450   22.0960   23.7150 N   0  0  0  0  0  2  0  0  0  0  0  0
  -14.3740   20.1660   19.5090 N   0  0  0  0  0  1  0  0  0  0  0  0
   -3.6920   21.2000   24.8420 N   0  0  0  0  0  0  0  0  0  0  0  0
  -11.5870   18.9630   23.2420 O   0  0  0  0  0  0  0  0  0  0  0  0
  -12.9720   17.8510   20.8650 O   0  0  0  0  0  1  0  0  0  0  0  0
   -1.1060   20.3550   25.4110 O   0  0  0  0  0  0  0  0  0  0  0  0
  1  2  1  0
  2  3  1  0
  2 23  1  0
  4  5  1  0
  4 24  1  0
  5  6  1  0
  5  9  1  0
  6  7  1  0
  6 27  1  0
  7  8  1  0
  8 10  1  0
  8 25  1  0
  9 23  1  0
  9 25  1  0
 10 11  1  0
 10 18  1  0
 11 12  1  0
 12 13  1  0
 13 14  1  0
 14 18  1  0
 14 28  1  0
 15 16  1  0
 15 28  1  0
 16 17  1  0
 16 29  1  0
 17 26  1  0
 19 20  1  0
 19 27  1  0
 20 30  1  0
 21 22  1  0
 21 30  1  0
 22 27  1  0
 23 24  1  0
M  END
$$$$
