6s74_C_KY8_501
     RDKit          3D

 33 36  0  0  0  0  0  0  0  0999 V2000
  -11.6870   27.6590   90.1130 C   0  0  0  0  0  3  0  0  0  0  0  0
  -11.8000   26.4050   90.4670 C   0  0  0  0  0  3  0  0  0  0  0  0
  -13.0940   26.3240   90.9330 C   0  0  0  0  0  3  0  0  0  0  0  0
  -14.2820   24.2280   91.8920 C   0  0  0  0  0  3  0  0  0  0  0  0
  -15.0850   23.5000   93.8040 C   0  0  0  0  0  2  0  0  0  0  0  0
  -15.2440   22.0670   91.9930 C   0  0  0  0  0  3  0  0  0  0  0  0
  -14.6200   23.0780   91.3100 C   0  0  0  0  0  3  0  0  0  0  0  0
  -13.6160   24.2510   89.5290 C   0  0  0  0  0  2  0  0  0  0  0  0
  -13.0850   28.1320   89.8110 C   0  0  0  0  0  3  0  0  0  0  0  0
  -13.4100   28.5500   88.3730 C   0  0  0  0  0  2  0  0  0  0  0  0
  -14.3630   30.7590   89.0350 C   0  0  0  0  0  2  0  0  0  0  0  0
  -13.7870   32.0590   89.6440 C   0  0  0  0  0  2  0  0  0  0  0  0
  -14.9890   33.0780   89.9860 C   0  0  0  0  0  2  0  0  0  0  0  0
  -13.9070   30.2980   86.7470 C   0  0  0  0  0  2  0  0  0  0  0  0
  -13.4070   29.4620   85.6210 C   0  0  0  0  0  2  0  0  0  0  0  0
  -13.5650   30.1830   84.2310 C   0  0  0  0  0  2  0  0  0  0  0  0
  -12.4120   30.0320   82.1370 C   0  0  0  0  0  3  0  0  0  0  0  0
  -11.1550   30.0520   79.9510 C   0  0  0  0  0  2  0  0  0  0  0  0
  -11.1590   31.5240   79.9450 C   0  0  0  0  0  2  0  0  0  0  0  0
  -11.7920   32.2210   81.0470 C   0  0  0  0  0  2  0  0  0  0  0  0
  -13.5530   24.9300   90.8010 N   0  0  0  0  0  0  0  0  0  0  0  0
  -14.4200   24.4460   93.0950 N   0  0  0  0  0  2  0  0  0  0  0  0
  -15.4950   22.3350   93.2670 N   0  0  0  0  0  2  0  0  0  0  0  0
  -15.6760   20.7440   91.3790 N   0  0  0  0  0  1  0  0  0  0  0  0
  -14.2360   23.0990   89.8180 N   0  0  0  0  0  2  0  0  0  0  0  0
  -13.2890   30.0490   88.1180 N   0  0  0  0  0  0  0  0  0  0  0  0
  -15.1660   34.1030   88.8730 N   0  0  0  0  0  1  0  0  0  0  0  0
  -12.9170   29.3860   83.1440 N   0  0  0  0  0  2  0  0  0  0  0  0
  -11.8050   29.3390   81.0140 N   0  0  0  0  0  2  0  0  0  0  0  0
  -12.3910   31.5050   82.1300 N   0  0  0  0  0  2  0  0  0  0  0  0
  -10.9690   28.5160   91.0960 O   0  0  0  0  0  1  0  0  0  0  0  0
  -10.6750   25.9290   91.4170 O   0  0  0  0  0  1  0  0  0  0  0  0
  -13.8550   27.2220   90.1720 O   0  0  0  0  0  0  0  0  0  0  0  0
  1  2  1  0
  1  9  1  0
  1 31  1  0
  2  3  1  0
  2 32  1  0
  3 21  1  0
  3 33  1  0
  4  7  1  0
  4 21  1  0
  4 22  1  0
  5 22  1  0
  5 23  1  0
  6  7  1  0
  6 23  1  0
  6 24  1  0
  7 25  1  0
  8 21  1  0
  8 25  1  0
  9 10  1  0
  9 33  1  0
 10 26  1  0
 11 12  1  0
 11 26  1  0
 12 13  1  0
 13 27  1  0
 14 15  1  0
 14 26  1  0
 15 16  1  0
 16 28  1  0
 17 28  1  0
 17 29  1  0
 17 30  1  0
 18 19  1  0
 18 29  1  0
 19 20  1  0
 20 30  1  0
M  END
$$$$
