6s77_A_KXW_501
     RDKit          3D

 36 39  0  0  0  0  0  0  0  0999 V2000
   -9.1080   11.7960  -76.1970 C   0  0  0  0  0  3  0  0  0  0  0  0
   -8.8620   11.2400  -77.2860 C   0  0  0  0  0  3  0  0  0  0  0  0
  -10.0570   10.1520  -77.4930 C   0  0  0  0  0  3  0  0  0  0  0  0
  -10.2340    8.4880  -79.3230 C   0  0  0  0  0  3  0  0  0  0  0  0
  -10.1620    6.2060  -79.3870 C   0  0  0  0  0  2  0  0  0  0  0  0
  -10.4900    7.3170  -81.3430 C   0  0  0  0  0  3  0  0  0  0  0  0
  -10.4320    8.5360  -80.6550 C   0  0  0  0  0  3  0  0  0  0  0  0
  -10.3920   10.5640  -79.8950 C   0  0  0  0  0  2  0  0  0  0  0  0
  -10.6600   11.7310  -76.0640 C   0  0  0  0  0  3  0  0  0  0  0  0
  -11.1370   13.0070  -76.2930 C   0  0  0  0  0  2  0  0  0  0  0  0
  -11.9690   12.9420  -73.9570 C   0  0  0  0  0  2  0  0  0  0  0  0
  -13.3540   13.0200  -73.2450 C   0  0  0  0  0  2  0  0  0  0  0  0
  -13.4900   11.9440  -72.1580 C   0  0  0  0  0  3  0  0  0  0  0  0
  -13.0520   12.5280  -70.8450 C   0  0  0  0  0  3  0  0  0  0  0  0
  -12.1260   14.9420  -75.2860 C   0  0  0  0  0  2  0  0  0  0  0  0
  -12.7390   15.5780  -76.5770 C   0  0  0  0  0  2  0  0  0  0  0  0
  -12.9070   17.1050  -76.4750 C   0  0  0  0  0  2  0  0  0  0  0  0
  -12.2190   19.1600  -77.7320 C   0  0  0  0  0  3  0  0  0  0  0  0
  -12.8140   19.8930  -76.7150 C   0  0  0  0  0  2  0  0  0  0  0  0
  -12.7640   21.2740  -76.8120 C   0  0  0  0  0  2  0  0  0  0  0  0
  -12.1300   21.8250  -77.9090 C   0  0  0  0  0  2  0  0  0  0  0  0
  -11.5550   21.0140  -78.8960 C   0  0  0  0  0  2  0  0  0  0  0  0
  -10.2110    9.7580  -78.8650 N   0  0  0  0  0  0  0  0  0  0  0  0
  -10.1050    7.3060  -78.7160 N   0  0  0  0  0  2  0  0  0  0  0  0
  -10.3530    6.1950  -80.6730 N   0  0  0  0  0  2  0  0  0  0  0  0
  -10.6860    7.2420  -82.7500 N   0  0  0  0  0  1  0  0  0  0  0  0
  -10.5250    9.8380  -80.9900 N   0  0  0  0  0  2  0  0  0  0  0  0
  -12.1770   13.4620  -75.3480 N   0  0  0  0  0  0  0  0  0  0  0  0
  -14.8620   11.5610  -72.0610 N   0  0  0  0  0  1  0  0  0  0  0  0
  -12.2590   17.7060  -77.6270 N   0  0  0  0  0  2  0  0  0  0  0  0
  -11.6180   19.7070  -78.7760 N   0  0  0  0  0  2  0  0  0  0  0  0
   -8.5710   11.1140  -74.9800 O   0  0  0  0  0  1  0  0  0  0  0  0
   -7.5880   10.5520  -77.3630 O   0  0  0  0  0  1  0  0  0  0  0  0
  -11.0780   10.8040  -77.1620 O   0  0  0  0  0  0  0  0  0  0  0  0
  -11.8630   12.5470  -70.5370 O   0  0  0  0  0  1  0  0  0  0  0  0
  -13.8880   12.9970  -70.0750 O   0  0  0  0  0  1  0  0  0  0  0  0
  1  2  1  0
  1  9  1  0
  1 32  1  0
  2  3  1  0
  2 33  1  0
  3 23  1  0
  3 34  1  0
  4  7  1  0
  4 23  1  0
  4 24  1  0
  5 24  1  0
  5 25  1  0
  6  7  1  0
  6 25  1  0
  6 26  1  0
  7 27  1  0
  8 23  1  0
  8 27  1  0
  9 10  1  0
  9 34  1  0
 10 28  1  0
 11 12  1  0
 11 28  1  0
 12 13  1  0
 13 14  1  0
 13 29  1  0
 14 35  1  0
 14 36  1  0
 15 16  1  0
 15 28  1  0
 16 17  1  0
 17 30  1  0
 18 19  1  0
 18 30  1  0
 18 31  1  0
 19 20  1  0
 20 21  1  0
 21 22  1  0
 22 31  1  0
M  END
$$$$
