6s77_C_KXW_501
     RDKit          3D

 36 39  0  0  0  0  0  0  0  0999 V2000
   12.9430   28.3120  -89.8780 C   0  0  0  0  0  3  0  0  0  0  0  0
   13.1340   27.1080  -90.0950 C   0  0  0  0  0  3  0  0  0  0  0  0
   14.5950   27.0270  -90.8090 C   0  0  0  0  0  3  0  0  0  0  0  0
   15.8970   25.1010  -91.5380 C   0  0  0  0  0  3  0  0  0  0  0  0
   16.7030   24.4160  -93.5560 C   0  0  0  0  0  2  0  0  0  0  0  0
   17.1360   23.1380  -91.7450 C   0  0  0  0  0  3  0  0  0  0  0  0
   16.4400   24.0300  -90.9440 C   0  0  0  0  0  3  0  0  0  0  0  0
   15.4300   25.1920  -89.4260 C   0  0  0  0  0  2  0  0  0  0  0  0
   14.3670   28.9210  -89.7170 C   0  0  0  0  0  3  0  0  0  0  0  0
   14.6300   29.0550  -88.3680 C   0  0  0  0  0  2  0  0  0  0  0  0
   15.9890   30.9650  -88.0670 C   0  0  0  0  0  2  0  0  0  0  0  0
   16.0870   32.5230  -88.1940 C   0  0  0  0  0  2  0  0  0  0  0  0
   16.0310   33.1250  -89.6150 C   0  0  0  0  0  3  0  0  0  0  0  0
   14.6670   33.7140  -89.6970 C   0  0  0  0  0  3  0  0  0  0  0  0
   14.2610   30.2490  -86.4300 C   0  0  0  0  0  2  0  0  0  0  0  0
   14.7990   31.3920  -85.5330 C   0  0  0  0  0  2  0  0  0  0  0  0
   15.4210   30.9670  -84.1860 C   0  0  0  0  0  2  0  0  0  0  0  0
   13.9540   30.2430  -82.2310 C   0  0  0  0  0  3  0  0  0  0  0  0
   13.9580   31.5510  -81.7460 C   0  0  0  0  0  2  0  0  0  0  0  0
   13.2710   31.8440  -80.5720 C   0  0  0  0  0  2  0  0  0  0  0  0
   12.5990   30.8150  -79.9390 C   0  0  0  0  0  2  0  0  0  0  0  0
   12.6470   29.5200  -80.4770 C   0  0  0  0  0  2  0  0  0  0  0  0
   15.2670   25.8050  -90.5870 N   0  0  0  0  0  0  0  0  0  0  0  0
   16.0450   25.2730  -92.8500 N   0  0  0  0  0  2  0  0  0  0  0  0
   17.2390   23.3700  -93.0250 N   0  0  0  0  0  2  0  0  0  0  0  0
   17.7400   21.9750  -91.1910 N   0  0  0  0  0  1  0  0  0  0  0  0
   16.1350   24.0980  -89.6410 N   0  0  0  0  0  2  0  0  0  0  0  0
   14.5870   30.4520  -87.8770 N   0  0  0  0  0  0  0  0  0  0  0  0
   17.0450   34.1210  -89.7710 N   0  0  0  0  0  1  0  0  0  0  0  0
   14.6820   29.9310  -83.4770 N   0  0  0  0  0  2  0  0  0  0  0  0
   13.3230   29.2710  -81.5910 N   0  0  0  0  0  2  0  0  0  0  0  0
   12.2580   29.1010  -90.9430 O   0  0  0  0  0  1  0  0  0  0  0  0
   12.1490   26.4710  -90.9280 O   0  0  0  0  0  1  0  0  0  0  0  0
   15.2910   27.8680  -90.2170 O   0  0  0  0  0  0  0  0  0  0  0  0
   13.7420   33.0450  -89.2610 O   0  0  0  0  0  1  0  0  0  0  0  0
   14.4500   34.8180  -90.1800 O   0  0  0  0  0  1  0  0  0  0  0  0
  1  2  1  0
  1  9  1  0
  1 32  1  0
  2  3  1  0
  2 33  1  0
  3 23  1  0
  3 34  1  0
  4  7  1  0
  4 23  1  0
  4 24  1  0
  5 24  1  0
  5 25  1  0
  6  7  1  0
  6 25  1  0
  6 26  1  0
  7 27  1  0
  8 23  1  0
  8 27  1  0
  9 10  1  0
  9 34  1  0
 10 28  1  0
 11 12  1  0
 11 28  1  0
 12 13  1  0
 13 14  1  0
 13 29  1  0
 14 35  1  0
 14 36  1  0
 15 16  1  0
 15 28  1  0
 16 17  1  0
 17 30  1  0
 18 19  1  0
 18 30  1  0
 18 31  1  0
 19 20  1  0
 20 21  1  0
 21 22  1  0
 22 31  1  0
M  END
$$$$
