6s79_D_KXW_501
     RDKit          3D

 72192  0  0  0  0  0  0  0  0999 V2000
  -46.9720   37.3930  -27.5440 C   0  0  0  0  0  7  0  0  0  0  0  0
  -46.9710   37.3890  -27.5470 C   0  0  0  0  0  7  0  0  0  0  0  0
  -46.7270   37.9580  -26.4570 C   0  0  0  0  0  7  0  0  0  0  0  0
  -46.7260   37.9620  -26.4550 C   0  0  0  0  0  7  0  0  0  0  0  0
  -47.8950   39.1050  -26.3120 C   0  0  0  0  0  7  0  0  0  0  0  0
  -47.8910   39.1120  -26.3100 C   0  0  0  0  0  7  0  0  0  0  0  0
  -48.0890   40.8760  -24.5580 C   0  0  0  0  0  7  0  0  0  0  0  0
  -48.0870   40.8800  -24.5530 C   0  0  0  0  0  7  0  0  0  0  0  0
  -48.0400   43.1750  -24.5830 C   0  0  0  0  0  5  0  0  0  0  0  0
  -48.0390   43.1790  -24.5720 C   0  0  0  0  0  5  0  0  0  0  0  0
  -48.3500   42.1170  -22.5620 C   0  0  0  0  0  7  0  0  0  0  0  0
  -48.3490   42.1170  -22.5540 C   0  0  0  0  0  7  0  0  0  0  0  0
  -48.2840   40.8810  -23.2090 C   0  0  0  0  0  7  0  0  0  0  0  0
  -48.2820   40.8820  -23.2040 C   0  0  0  0  0  7  0  0  0  0  0  0
  -48.2320   38.8050  -23.8750 C   0  0  0  0  0  5  0  0  0  0  0  0
  -48.2280   38.8080  -23.8740 C   0  0  0  0  0  5  0  0  0  0  0  0
  -48.5370   37.4760  -27.6720 C   0  0  0  0  0  7  0  0  0  0  0  0
  -48.5360   37.4650  -27.6740 C   0  0  0  0  0  7  0  0  0  0  0  0
  -49.1640   36.2450  -27.3930 C   0  0  0  0  0  5  0  0  0  0  0  0
  -49.1570   36.2320  -27.3900 C   0  0  0  0  0  5  0  0  0  0  0  0
  -50.6310   36.4480  -29.3710 C   0  0  0  0  0  5  0  0  0  0  0  0
  -50.6270   36.4660  -29.3830 C   0  0  0  0  0  5  0  0  0  0  0  0
  -50.8780   35.8710  -30.8180 C   0  0  0  0  0  5  0  0  0  0  0  0
  -50.8660   35.8640  -30.8130 C   0  0  0  0  0  5  0  0  0  0  0  0
  -51.3770   36.9460  -31.8160 C   0  0  0  0  0  7  0  0  0  0  0  0
  -51.3760   36.9400  -31.8040 C   0  0  0  0  0  7  0  0  0  0  0  0
  -50.8410   36.6290  -33.1770 C   0  0  0  0  0  7  0  0  0  0  0  0
  -50.8340   36.6280  -33.1840 C   0  0  0  0  0  7  0  0  0  0  0  0
  -50.4110   34.3090  -28.2820 C   0  0  0  0  0  5  0  0  0  0  0  0
  -50.4110   34.3260  -28.2980 C   0  0  0  0  0  5  0  0  0  0  0  0
  -49.4410   33.1310  -27.9190 C   0  0  0  0  0  5  0  0  0  0  0  0
  -49.4360   33.1550  -27.9290 C   0  0  0  0  0  5  0  0  0  0  0  0
  -50.1090   32.1280  -26.9500 C   0  0  0  0  0  5  0  0  0  0  0  0
  -50.0910   32.1720  -26.9330 C   0  0  0  0  0  5  0  0  0  0  0  0
  -50.3030   29.6180  -27.1250 C   0  0  0  0  0  7  0  0  0  0  0  0
  -50.2950   29.6410  -27.1070 C   0  0  0  0  0  7  0  0  0  0  0  0
  -50.7450   28.4730  -27.8170 C   0  0  0  0  0  5  0  0  0  0  0  0
  -49.5680   29.5110  -25.9100 C   0  0  0  0  0  5  0  0  0  0  0  0
  -50.4600   27.2120  -27.2670 C   0  0  0  0  0  5  0  0  0  0  0  0
  -49.3090   28.2240  -25.4200 C   0  0  0  0  0  5  0  0  0  0  0  0
  -49.7910   27.1280  -26.1470 C   0  0  0  0  0  5  0  0  0  0  0  0
  -49.7510   27.1610  -26.0600 C   0  0  0  0  0  5  0  0  0  0  0  0
  -50.5110   27.3420  -27.3390 C   0  0  0  0  0  5  0  0  0  0  0  0
  -49.3420   28.3560  -25.4360 C   0  0  0  0  0  5  0  0  0  0  0  0
  -48.0540   39.5740  -24.9550 N   0  0  0  0  0  7  0  0  0  0  0  0
  -48.0500   39.5790  -24.9520 N   0  0  0  0  0  7  0  0  0  0  0  0
  -47.9710   42.0410  -25.2190 N   0  0  0  0  0  5  0  0  0  0  0  0
  -47.9690   42.0470  -25.2110 N   0  0  0  0  0  5  0  0  0  0  0  0
  -48.2260   43.2270  -23.2840 N   0  0  0  0  0  5  0  0  0  0  0  0
  -48.2260   43.2280  -23.2730 N   0  0  0  0  0  5  0  0  0  0  0  0
  -48.5550   42.1980  -21.1370 N   0  0  0  0  0  0  0  0  0  0  0  0
  -48.5540   42.1940  -21.1300 N   0  0  0  0  0  0  0  0  0  0  0  0
  -48.3720   39.5910  -22.8060 N   0  0  0  0  0  5  0  0  0  0  0  0
  -48.3690   39.5910  -22.8030 N   0  0  0  0  0  5  0  0  0  0  0  0
  -49.6590   35.5590  -28.6270 N   0  0  0  0  0  7  0  0  0  0  0  0
  -49.6590   35.5760  -28.6350 N   0  0  0  0  0  7  0  0  0  0  0  0
  -52.8100   36.9280  -31.8560 N   0  0  0  0  0  0  0  0  0  0  0  0
  -52.8100   36.9360  -31.8770 N   0  0  0  0  0  0  0  0  0  0  0  0
  -50.5800   30.9530  -27.6800 N   0  0  0  0  0  5  0  0  0  0  0  0
  -50.5690   30.9860  -27.6430 N   0  0  0  0  0  5  0  0  0  0  0  0
  -50.7390   28.5810  -27.7780 N   0  0  0  0  0  5  0  0  0  0  0  0
  -49.6310   29.5350  -25.9820 N   0  0  0  0  0  5  0  0  0  0  0  0
  -46.3750   38.0730  -28.7670 O   0  0  0  0  0  3  0  0  0  0  0  0
  -46.3730   38.0720  -28.7650 O   0  0  0  0  0  3  0  0  0  0  0  0
  -45.4040   38.5860  -26.3760 O   0  0  0  0  0  3  0  0  0  0  0  0
  -45.4030   38.5890  -26.3750 O   0  0  0  0  0  3  0  0  0  0  0  0
  -48.9550   38.4890  -26.6430 O   0  0  0  0  0  5  0  0  0  0  0  0
  -48.9530   38.5000  -26.6400 O   0  0  0  0  0  5  0  0  0  0  0  0
  -49.6600   36.2660  -33.2970 O   0  0  0  0  0  3  0  0  0  0  0  0
  -49.6550   36.2580  -33.2950 O   0  0  0  0  0  3  0  0  0  0  0  0
  -51.5770   36.7400  -34.1810 O   0  0  0  0  0  3  0  0  0  0  0  0
  -51.5620   36.7420  -34.1930 O   0  0  0  0  0  3  0  0  0  0  0  0
  1  2  1  0
  1  3  1  0
  1  4  1  0
  1 17  1  0
  1 18  1  0
  1 63  1  0
  1 64  1  0
  2  3  1  0
  2  4  1  0
  2 17  1  0
  2 18  1  0
  2 63  1  0
  2 64  1  0
  3  4  1  0
  3  5  1  0
  3  6  1  0
  3 65  1  0
  3 66  1  0
  4  5  1  0
  4  6  1  0
  4 65  1  0
  4 66  1  0
  5  6  1  0
  5 45  1  0
  5 46  1  0
  5 67  1  0
  5 68  1  0
  6 45  1  0
  6 46  1  0
  6 67  1  0
  6 68  1  0
  7  8  1  0
  7 13  1  0
  7 14  1  0
  7 45  1  0
  7 46  1  0
  7 47  1  0
  7 48  1  0
  8 13  1  0
  8 14  1  0
  8 45  1  0
  8 46  1  0
  8 47  1  0
  8 48  1  0
  9 10  1  0
  9 47  1  0
  9 48  1  0
  9 49  1  0
  9 50  1  0
 10 47  1  0
 10 48  1  0
 10 49  1  0
 10 50  1  0
 11 12  1  0
 11 13  1  0
 11 14  1  0
 11 49  1  0
 11 50  1  0
 11 51  1  0
 11 52  1  0
 12 13  1  0
 12 14  1  0
 12 49  1  0
 12 50  1  0
 12 51  1  0
 12 52  1  0
 13 14  1  0
 13 53  1  0
 13 54  1  0
 14 53  1  0
 14 54  1  0
 15 16  1  0
 15 45  1  0
 15 46  1  0
 15 53  1  0
 15 54  1  0
 16 45  1  0
 16 46  1  0
 16 53  1  0
 16 54  1  0
 17 18  1  0
 17 19  1  0
 17 20  1  0
 17 67  1  0
 17 68  1  0
 18 19  1  0
 18 20  1  0
 18 67  1  0
 18 68  1  0
 19 20  1  0
 19 55  1  0
 19 56  1  0
 20 55  1  0
 20 56  1  0
 21 22  1  0
 21 23  1  0
 21 24  1  0
 21 55  1  0
 21 56  1  0
 22 23  1  0
 22 24  1  0
 22 55  1  0
 22 56  1  0
 23 24  1  0
 23 25  1  0
 23 26  1  0
 24 25  1  0
 24 26  1  0
 25 26  1  0
 25 27  1  0
 25 28  1  0
 25 57  1  0
 25 58  1  0
 26 27  1  0
 26 28  1  0
 26 57  1  0
 26 58  1  0
 27 28  1  0
 27 69  1  0
 27 70  1  0
 27 71  1  0
 27 72  1  0
 28 69  1  0
 28 70  1  0
 28 71  1  0
 28 72  1  0
 29 30  1  0
 29 31  1  0
 29 32  1  0
 29 55  1  0
 29 56  1  0
 30 31  1  0
 30 32  1  0
 30 55  1  0
 30 56  1  0
 31 32  1  0
 31 33  1  0
 31 34  1  0
 32 33  1  0
 32 34  1  0
 33 34  1  0
 33 59  1  0
 33 60  1  0
 34 59  1  0
 34 60  1  0
 35 36  1  0
 35 37  1  0
 35 38  1  0
 35 59  1  0
 35 60  1  0
 35 61  1  0
 35 62  1  0
 36 37  1  0
 36 38  1  0
 36 59  1  0
 36 60  1  0
 36 61  1  0
 36 62  1  0
 37 39  1  0
 37 43  1  0
 37 61  1  0
 38 40  1  0
 38 44  1  0
 38 62  1  0
 39 41  1  0
 39 42  1  0
 39 43  1  0
 39 61  1  0
 40 41  1  0
 40 42  1  0
 40 44  1  0
 40 62  1  0
 41 42  1  0
 41 43  1  0
 41 44  1  0
 42 43  1  0
 42 44  1  0
 43 61  1  0
 44 62  1  0
 45 46  1  0
 47 48  1  0
 49 50  1  0
 51 52  1  0
 53 54  1  0
 55 56  1  0
 57 58  1  0
 59 60  1  0
 63 64  1  0
 65 66  1  0
 67 68  1  0
 69 70  1  0
 71 72  1  0
M  END
$$$$
