6s7a_C_KY5_501
     RDKit          3D

 33 36  0  0  0  0  0  0  0  0999 V2000
   12.9810   28.3400  -90.0920 C   0  0  0  0  0  3  0  0  0  0  0  0
   13.0690   26.9280  -90.3280 C   0  0  0  0  0  3  0  0  0  0  0  0
   14.4140   26.7880  -90.9080 C   0  0  0  0  0  3  0  0  0  0  0  0
   15.7710   24.8570  -91.7150 C   0  0  0  0  0  3  0  0  0  0  0  0
   16.6630   24.2930  -93.8090 C   0  0  0  0  0  2  0  0  0  0  0  0
   17.0670   22.8480  -92.0000 C   0  0  0  0  0  3  0  0  0  0  0  0
   16.3070   23.7250  -91.1580 C   0  0  0  0  0  3  0  0  0  0  0  0
   15.2460   24.8370  -89.5720 C   0  0  0  0  0  2  0  0  0  0  0  0
   14.1460   28.7980  -90.0160 C   0  0  0  0  0  3  0  0  0  0  0  0
   14.5700   29.2230  -88.7030 C   0  0  0  0  0  2  0  0  0  0  0  0
   13.5360   30.6390  -86.9330 C   0  0  0  0  0  2  0  0  0  0  0  0
   14.6390   30.3590  -85.8920 C   0  0  0  0  0  2  0  0  0  0  0  0
   14.0210   30.3050  -84.4590 C   0  0  0  0  0  2  0  0  0  0  0  0
   15.0900   31.7190  -88.5360 C   0  0  0  0  0  2  0  0  0  0  0  0
   14.6530   32.5860  -89.7630 C   0  0  0  0  0  2  0  0  0  0  0  0
   15.6690   33.7570  -89.9610 C   0  0  0  0  0  2  0  0  0  0  0  0
   15.1840   35.7380  -88.6040 C   0  0  0  0  0  3  0  0  0  0  0  0
   16.4960   35.7170  -87.8180 C   0  0  0  0  0  2  0  0  0  0  0  0
   16.7440   36.7690  -86.7870 C   0  0  0  0  0  2  0  0  0  0  0  0
   15.7140   37.8250  -86.5320 C   0  0  0  0  0  2  0  0  0  0  0  0
   14.4200   37.8250  -87.3150 C   0  0  0  0  0  2  0  0  0  0  0  0
   15.0940   25.5310  -90.7260 N   0  0  0  0  0  0  0  0  0  0  0  0
   15.9420   25.1400  -93.0580 N   0  0  0  0  0  2  0  0  0  0  0  0
   17.2120   23.1800  -93.3010 N   0  0  0  0  0  2  0  0  0  0  0  0
   17.6640   21.6300  -91.4740 N   0  0  0  0  0  1  0  0  0  0  0  0
   15.9830   23.7210  -89.8230 N   0  0  0  0  0  2  0  0  0  0  0  0
   14.0500   30.6300  -88.3460 N   0  0  0  0  0  0  0  0  0  0  0  0
   15.0970   30.2260  -83.4930 N   0  0  0  0  0  1  0  0  0  0  0  0
   14.8560   34.9190  -89.5130 N   0  0  0  0  0  2  0  0  0  0  0  0
   14.1570   36.7860  -88.3310 N   0  0  0  0  0  2  0  0  0  0  0  0
   12.2240   29.0450  -91.1650 O   0  0  0  0  0  1  0  0  0  0  0  0
   12.0820   26.4670  -91.0600 O   0  0  0  0  0  1  0  0  0  0  0  0
   15.0990   27.6690  -90.3360 O   0  0  0  0  0  0  0  0  0  0  0  0
  1  2  1  0
  1  9  1  0
  1 31  1  0
  2  3  1  0
  2 32  1  0
  3 22  1  0
  3 33  1  0
  4  7  1  0
  4 22  1  0
  4 23  1  0
  5 23  1  0
  5 24  1  0
  6  7  1  0
  6 24  1  0
  6 25  1  0
  7 26  1  0
  8 22  1  0
  8 26  1  0
  9 10  1  0
  9 33  1  0
 10 27  1  0
 11 12  1  0
 11 27  1  0
 12 13  1  0
 13 28  1  0
 14 15  1  0
 14 27  1  0
 15 16  1  0
 16 29  1  0
 17 18  1  0
 17 29  1  0
 17 30  1  0
 18 19  1  0
 19 20  1  0
 20 21  1  0
 21 30  1  0
M  END
$$$$
