6s7b_B_KYH_501
     RDKit          3D

 31 33  0  0  0  0  0  0  0  0999 V2000
  -46.6930   12.2370  -76.3380 C   0  0  0  0  0  3  0  0  0  0  0  0
  -46.5200   11.5800  -77.3720 C   0  0  0  0  0  3  0  0  0  0  0  0
  -47.8850   10.6680  -77.5060 C   0  0  0  0  0  3  0  0  0  0  0  0
  -48.1160    8.8390  -79.1830 C   0  0  0  0  0  3  0  0  0  0  0  0
  -48.1740    6.4990  -79.0240 C   0  0  0  0  0  2  0  0  0  0  0  0
  -48.3650    7.4750  -81.1350 C   0  0  0  0  0  3  0  0  0  0  0  0
  -48.2600    8.7750  -80.5350 C   0  0  0  0  0  3  0  0  0  0  0  0
  -48.1280   10.8840  -79.9570 C   0  0  0  0  0  2  0  0  0  0  0  0
  -48.2390   12.5270  -76.3390 C   0  0  0  0  0  3  0  0  0  0  0  0
  -48.4890   13.8240  -76.8510 C   0  0  0  0  0  2  0  0  0  0  0  0
  -50.3520   13.6430  -75.2230 C   0  0  0  0  0  2  0  0  0  0  0  0
  -49.3790   13.7030  -74.0000 C   0  0  0  0  0  2  0  0  0  0  0  0
  -50.1130   13.3260  -72.6870 C   0  0  0  0  0  2  0  0  0  0  0  0
  -49.6900   15.8080  -76.0630 C   0  0  0  0  0  2  0  0  0  0  0  0
  -50.9260   16.5580  -76.7030 C   0  0  0  0  0  2  0  0  0  0  0  0
  -50.5280   17.7210  -77.6430 C   0  0  0  0  0  2  0  0  0  0  0  0
  -50.4010   19.0680  -76.8520 C   0  0  0  0  0  2  0  0  0  0  0  0
  -49.3800   21.1880  -77.4660 C   0  0  0  0  0  3  0  0  0  0  0  0
  -48.0350   10.1620  -78.8450 N   0  0  0  0  0  0  0  0  0  0  0  0
  -48.0720    7.6790  -78.4310 N   0  0  0  0  0  2  0  0  0  0  0  0
  -48.3140    6.3970  -80.3410 N   0  0  0  0  0  2  0  0  0  0  0  0
  -48.5210    7.3280  -82.6050 N   0  0  0  0  0  1  0  0  0  0  0  0
  -48.2660   10.0470  -81.0070 N   0  0  0  0  0  2  0  0  0  0  0  0
  -49.8040   14.3830  -76.3770 N   0  0  0  0  0  0  0  0  0  0  0  0
  -51.2910   14.2160  -72.4840 N   0  0  0  0  0  1  0  0  0  0  0  0
  -50.3050   20.2380  -77.7600 N   0  0  0  0  0  2  0  0  0  0  0  0
  -48.5920   21.0180  -76.3890 N   0  0  0  0  0  1  0  0  0  0  0  0
  -49.2460   22.2590  -78.2220 N   0  0  0  0  0  1  0  0  0  0  0  0
  -46.3650   11.4900  -75.0560 O   0  0  0  0  0  1  0  0  0  0  0  0
  -45.3210   10.7070  -77.3400 O   0  0  0  0  0  1  0  0  0  0  0  0
  -48.8310   11.4700  -77.2420 O   0  0  0  0  0  0  0  0  0  0  0  0
  1  2  1  0
  1  9  1  0
  1 29  1  0
  2  3  1  0
  2 30  1  0
  3 19  1  0
  3 31  1  0
  4  7  1  0
  4 19  1  0
  4 20  1  0
  5 20  1  0
  5 21  1  0
  6  7  1  0
  6 21  1  0
  6 22  1  0
  7 23  1  0
  8 19  1  0
  8 23  1  0
  9 10  1  0
  9 31  1  0
 10 24  1  0
 11 12  1  0
 11 24  1  0
 12 13  1  0
 13 25  1  0
 14 15  1  0
 14 24  1  0
 15 16  1  0
 16 17  1  0
 17 26  1  0
 18 26  1  0
 18 27  1  0
 18 28  1  0
M  END
$$$$
