6s7b_C_KYH_501
     RDKit          3D

 31 33  0  0  0  0  0  0  0  0999 V2000
  -49.1790   27.7290  -13.6180 C   0  0  0  0  0  3  0  0  0  0  0  0
  -49.3290   26.5150  -13.3540 C   0  0  0  0  0  3  0  0  0  0  0  0
  -50.9190   26.3850  -12.9140 C   0  0  0  0  0  3  0  0  0  0  0  0
  -52.1000   24.2660  -12.2080 C   0  0  0  0  0  3  0  0  0  0  0  0
  -53.2060   23.5820  -10.2470 C   0  0  0  0  0  2  0  0  0  0  0  0
  -53.1070   22.0800  -12.0370 C   0  0  0  0  0  3  0  0  0  0  0  0
  -52.3700   23.0630  -12.8020 C   0  0  0  0  0  3  0  0  0  0  0  0
  -51.2630   24.3360  -14.2400 C   0  0  0  0  0  2  0  0  0  0  0  0
  -50.5580   28.1890  -14.2020 C   0  0  0  0  0  3  0  0  0  0  0  0
  -50.6250   28.1140  -15.6270 C   0  0  0  0  0  2  0  0  0  0  0  0
  -52.1950   29.9750  -15.4070 C   0  0  0  0  0  2  0  0  0  0  0  0
  -51.8430   31.4400  -15.0130 C   0  0  0  0  0  2  0  0  0  0  0  0
  -53.0270   32.1780  -14.3140 C   0  0  0  0  0  2  0  0  0  0  0  0
  -51.5550   29.1030  -17.5860 C   0  0  0  0  0  2  0  0  0  0  0  0
  -51.1330   30.1560  -18.6640 C   0  0  0  0  0  2  0  0  0  0  0  0
  -50.9610   29.4530  -20.0260 C   0  0  0  0  0  2  0  0  0  0  0  0
  -51.3420   30.3820  -21.2160 C   0  0  0  0  0  2  0  0  0  0  0  0
  -49.2130   30.6920  -22.5320 C   0  0  0  0  0  3  0  0  0  0  0  0
  -51.4000   25.0380  -13.1220 N   0  0  0  0  0  0  0  0  0  0  0  0
  -52.5160   24.5200  -10.9130 N   0  0  0  0  0  2  0  0  0  0  0  0
  -53.4950   22.3870  -10.7980 N   0  0  0  0  0  2  0  0  0  0  0  0
  -53.4540   20.7480  -12.5920 N   0  0  0  0  0  1  0  0  0  0  0  0
  -51.8610   23.1090  -14.0700 N   0  0  0  0  0  2  0  0  0  0  0  0
  -51.0740   29.4260  -16.2250 N   0  0  0  0  0  0  0  0  0  0  0  0
  -53.2270   33.5610  -14.8460 N   0  0  0  0  0  1  0  0  0  0  0  0
  -50.2140   31.2090  -21.7560 N   0  0  0  0  0  2  0  0  0  0  0  0
  -49.1490   29.3960  -22.8390 N   0  0  0  0  0  1  0  0  0  0  0  0
  -48.2700   31.4790  -22.9880 N   0  0  0  0  0  1  0  0  0  0  0  0
  -48.8880   28.5800  -12.3890 O   0  0  0  0  0  1  0  0  0  0  0  0
  -48.4930   25.9700  -12.2400 O   0  0  0  0  0  1  0  0  0  0  0  0
  -51.5670   27.2220  -13.6440 O   0  0  0  0  0  0  0  0  0  0  0  0
  1  2  1  0
  1  9  1  0
  1 29  1  0
  2  3  1  0
  2 30  1  0
  3 19  1  0
  3 31  1  0
  4  7  1  0
  4 19  1  0
  4 20  1  0
  5 20  1  0
  5 21  1  0
  6  7  1  0
  6 21  1  0
  6 22  1  0
  7 23  1  0
  8 19  1  0
  8 23  1  0
  9 10  1  0
  9 31  1  0
 10 24  1  0
 11 12  1  0
 11 24  1  0
 12 13  1  0
 13 25  1  0
 14 15  1  0
 14 24  1  0
 15 16  1  0
 16 17  1  0
 17 26  1  0
 18 26  1  0
 18 27  1  0
 18 28  1  0
M  END
$$$$
