6s7c_A_KY2_501
     RDKit          3D

 30 32  0  0  0  0  0  0  0  0999 V2000
   11.3860  111.5040   76.0060 C   0  0  0  0  0  3  0  0  0  0  0  0
   11.0640  110.8360   77.0370 C   0  0  0  0  0  3  0  0  0  0  0  0
   12.3240  109.8080   77.2310 C   0  0  0  0  0  3  0  0  0  0  0  0
   12.7030  108.0780   78.9920 C   0  0  0  0  0  3  0  0  0  0  0  0
   12.8370  105.7770   79.0910 C   0  0  0  0  0  2  0  0  0  0  0  0
   13.1420  106.9510   81.0480 C   0  0  0  0  0  3  0  0  0  0  0  0
   12.9640  108.1400   80.3250 C   0  0  0  0  0  3  0  0  0  0  0  0
   12.7150  110.1840   79.5920 C   0  0  0  0  0  2  0  0  0  0  0  0
   12.9400  111.5840   75.9920 C   0  0  0  0  0  3  0  0  0  0  0  0
   13.3760  112.8890   76.3020 C   0  0  0  0  0  2  0  0  0  0  0  0
   14.0860  113.3740   73.8620 C   0  0  0  0  0  2  0  0  0  0  0  0
   14.8730  112.2260   73.1900 C   0  0  0  0  0  2  0  0  0  0  0  0
   15.5340  112.4410   71.8070 C   0  0  0  0  0  2  0  0  0  0  0  0
   15.0960  114.6990   75.7710 C   0  0  0  0  0  2  0  0  0  0  0  0
   14.2760  115.8410   76.4530 C   0  0  0  0  0  2  0  0  0  0  0  0
   14.8310  117.2480   76.0480 C   0  0  0  0  0  2  0  0  0  0  0  0
   14.1650  119.6060   76.7480 C   0  0  0  0  0  3  0  0  0  0  0  0
   12.5250  109.3500   78.5660 N   0  0  0  0  0  0  0  0  0  0  0  0
   12.6440  106.8880   78.3730 N   0  0  0  0  0  2  0  0  0  0  0  0
   13.0950  105.7900   80.3980 N   0  0  0  0  0  2  0  0  0  0  0  0
   13.4040  106.9880   82.4730 N   0  0  0  0  0  1  0  0  0  0  0  0
   12.9680  109.4240   80.6650 N   0  0  0  0  0  2  0  0  0  0  0  0
   14.4130  113.4370   75.3300 N   0  0  0  0  0  0  0  0  0  0  0  0
   16.9700  112.0910   71.8890 N   0  0  0  0  0  1  0  0  0  0  0  0
   14.6300  118.3340   77.0190 N   0  0  0  0  0  2  0  0  0  0  0  0
   13.7840  120.0590   75.5540 N   0  0  0  0  0  1  0  0  0  0  0  0
   14.0630  120.4730   77.7560 N   0  0  0  0  0  1  0  0  0  0  0  0
   11.0940  110.9280   74.6240 O   0  0  0  0  0  1  0  0  0  0  0  0
    9.9160  110.0180   76.8280 O   0  0  0  0  0  1  0  0  0  0  0  0
   13.3440  110.5530   77.0220 O   0  0  0  0  0  0  0  0  0  0  0  0
  1  2  1  0
  1  9  1  0
  1 28  1  0
  2  3  1  0
  2 29  1  0
  3 18  1  0
  3 30  1  0
  4  7  1  0
  4 18  1  0
  4 19  1  0
  5 19  1  0
  5 20  1  0
  6  7  1  0
  6 20  1  0
  6 21  1  0
  7 22  1  0
  8 18  1  0
  8 22  1  0
  9 10  1  0
  9 30  1  0
 10 23  1  0
 11 12  1  0
 11 23  1  0
 12 13  1  0
 13 24  1  0
 14 15  1  0
 14 23  1  0
 15 16  1  0
 16 25  1  0
 17 25  1  0
 17 26  1  0
 17 27  1  0
M  END
$$$$
