6s7c_C_KY2_501
     RDKit          3D

 30 32  0  0  0  0  0  0  0  0999 V2000
  -11.3690  126.1300   89.9210 C   0  0  0  0  0  3  0  0  0  0  0  0
  -11.5220  124.9060   90.1760 C   0  0  0  0  0  3  0  0  0  0  0  0
  -13.1110  124.7910   90.6680 C   0  0  0  0  0  3  0  0  0  0  0  0
  -14.1520  122.6640   91.5070 C   0  0  0  0  0  3  0  0  0  0  0  0
  -15.0020  121.9690   93.5770 C   0  0  0  0  0  2  0  0  0  0  0  0
  -15.1180  120.4750   91.7820 C   0  0  0  0  0  3  0  0  0  0  0  0
  -14.4870  121.4530   90.9430 C   0  0  0  0  0  3  0  0  0  0  0  0
  -13.5870  122.7010   89.3840 C   0  0  0  0  0  2  0  0  0  0  0  0
  -12.7520  126.5600   89.3200 C   0  0  0  0  0  3  0  0  0  0  0  0
  -12.7410  126.4790   87.9000 C   0  0  0  0  0  2  0  0  0  0  0  0
  -12.9340  128.9400   88.0210 C   0  0  0  0  0  2  0  0  0  0  0  0
  -14.1970  129.4720   88.7510 C   0  0  0  0  0  2  0  0  0  0  0  0
  -13.9670  130.8120   89.4650 C   0  0  0  0  0  2  0  0  0  0  0  0
  -12.7970  127.8600   85.8630 C   0  0  0  0  0  2  0  0  0  0  0  0
  -13.9140  128.1960   84.8680 C   0  0  0  0  0  2  0  0  0  0  0  0
  -13.4430  127.9080   83.4290 C   0  0  0  0  0  2  0  0  0  0  0  0
  -11.9350  128.9690   81.7620 C   0  0  0  0  0  3  0  0  0  0  0  0
  -13.5950  123.4310   90.5260 N   0  0  0  0  0  0  0  0  0  0  0  0
  -14.4310  122.8980   92.8240 N   0  0  0  0  0  2  0  0  0  0  0  0
  -15.3420  120.7880   93.0560 N   0  0  0  0  0  2  0  0  0  0  0  0
  -15.4940  119.1620   91.2700 N   0  0  0  0  0  1  0  0  0  0  0  0
  -14.1280  121.4980   89.6260 N   0  0  0  0  0  2  0  0  0  0  0  0
  -13.3040  127.7320   87.2630 N   0  0  0  0  0  0  0  0  0  0  0  0
  -15.1880  131.6350   89.4860 N   0  0  0  0  0  1  0  0  0  0  0  0
  -12.6420  129.0290   82.9280 N   0  0  0  0  0  2  0  0  0  0  0  0
  -11.8720  127.8910   80.9860 N   0  0  0  0  0  1  0  0  0  0  0  0
  -11.2420  130.0130   81.3490 N   0  0  0  0  0  1  0  0  0  0  0  0
  -11.1070  126.9780   91.1490 O   0  0  0  0  0  1  0  0  0  0  0  0
  -10.6480  124.3580   91.2330 O   0  0  0  0  0  1  0  0  0  0  0  0
  -13.7680  125.6030   89.9090 O   0  0  0  0  0  0  0  0  0  0  0  0
  1  2  1  0
  1  9  1  0
  1 28  1  0
  2  3  1  0
  2 29  1  0
  3 18  1  0
  3 30  1  0
  4  7  1  0
  4 18  1  0
  4 19  1  0
  5 19  1  0
  5 20  1  0
  6  7  1  0
  6 20  1  0
  6 21  1  0
  7 22  1  0
  8 18  1  0
  8 22  1  0
  9 10  1  0
  9 30  1  0
 10 23  1  0
 11 12  1  0
 11 23  1  0
 12 13  1  0
 13 24  1  0
 14 15  1  0
 14 23  1  0
 15 16  1  0
 16 25  1  0
 17 25  1  0
 17 26  1  0
 17 27  1  0
M  END
$$$$
