7ppq_D_LSK_501
     RDKit          3D

 82 86  0  0  0  0  0  0  0  0999 V2000
   42.3730   25.5680  181.2310 C   0  0  0  0  0  3  0  0  0  0  0  0
   43.3290   22.4170  182.9970 C   0  0  0  0  0  3  0  0  0  0  0  0
   41.1610   26.3330  180.8270 C   0  0  0  0  0  3  0  0  0  0  0  0
   40.8810   26.1040  178.4840 C   0  0  0  0  0  0  0  0  0  0  0  0
   46.9040   20.1230  183.7810 C   0  0  0  0  0  3  0  0  0  0  0  0
   47.6100   18.3870  185.3630 C   0  0  0  0  0  0  0  0  0  0  0  0
   48.6730   17.5780  184.5860 C   0  0  0  0  0  0  0  0  0  0  0  0
   50.1370   17.9800  184.9110 C   0  0  0  0  0  0  0  0  0  0  0  0
   52.3070   19.6290  188.7830 C   0  0  0  0  0  3  0  0  0  0  0  0
   51.7540   21.0570  190.7930 C   0  0  0  0  0  0  0  0  0  0  0  0
   51.8230   20.7850  192.2910 C   0  0  0  0  0  0  0  0  0  0  0  0
   43.6230   26.1000  180.9260 C   0  0  0  0  0  3  0  0  0  0  0  0
   50.4940   20.9960  193.0290 C   0  0  0  0  0  0  0  0  0  0  0  0
   50.5920   22.4810  193.4100 C   0  0  0  0  0  0  0  0  0  0  0  0
   52.0470   22.4770  193.9150 C   0  0  0  0  0  0  0  0  0  0  0  0
   52.8690   24.6350  192.9090 C   0  0  0  0  0  3  0  0  0  0  0  0
   53.7750   25.6010  194.5580 C   0  0  0  0  0  3  0  0  0  0  0  0
   54.4300   26.4330  195.4810 C   0  0  0  0  0  3  0  0  0  0  0  0
   54.0240   24.7960  197.0610 C   0  0  0  0  0  3  0  0  0  0  0  0
   53.2940   24.3940  195.0330 C   0  0  0  0  0  3  0  0  0  0  0  0
   50.5290   17.8000  186.4100 C   0  0  0  0  0  0  0  0  0  0  0  0
   51.9580   18.2300  186.7230 C   0  0  0  0  0  0  0  0  0  0  0  0
   44.7660   25.4330  181.2790 C   0  0  0  0  0  3  0  0  0  0  0  0
   44.7080   24.1680  181.9930 C   0  0  0  0  0  3  0  0  0  0  0  0
   43.4200   23.6510  182.3080 C   0  0  0  0  0  3  0  0  0  0  0  0
   42.2680   24.3780  181.9090 C   0  0  0  0  0  3  0  0  0  0  0  0
   45.8510   23.4130  182.4040 C   0  0  0  0  0  3  0  0  0  0  0  0
   45.7240   22.2170  183.0830 C   0  0  0  0  0  3  0  0  0  0  0  0
   44.4470   21.7310  183.3710 C   0  0  0  0  0  3  0  0  0  0  0  0
   49.6580   20.7670  192.3940 H   0  0  0  0  0  0  0  0  0  0  0  0
   48.4890   17.5750  183.5030 H   0  0  0  0  0  0  0  0  0  0  0  0
   48.5490   16.5150  184.8160 H   0  0  0  0  0  0  0  0  0  0  0  0
   43.6690   27.0500  180.3860 H   0  0  0  0  0  0  0  0  0  0  0  0
   42.3280   22.0330  183.2320 H   0  0  0  0  0  0  0  0  0  0  0  0
   41.2890   23.9610  182.1580 H   0  0  0  0  0  0  0  0  0  0  0  0
   46.8250   25.5190  181.1970 H   0  0  0  0  0  0  0  0  0  0  0  0
   41.5740   25.3750  178.0690 H   0  0  0  0  0  0  0  0  0  0  0  0
   41.3130   27.1020  178.3520 H   0  0  0  0  0  0  0  0  0  0  0  0
   39.9380   26.0550  177.9440 H   0  0  0  0  0  0  0  0  0  0  0  0
   52.1760   22.0060  194.8880 H   0  0  0  0  0  0  0  0  0  0  0  0
   52.2570   19.7940  192.4790 H   0  0  0  0  0  0  0  0  0  0  0  0
   52.5220   24.4100  191.9400 H   0  0  0  0  0  0  0  0  0  0  0  0
   54.1370   24.4980  198.0990 H   0  0  0  0  0  0  0  0  0  0  0  0
   49.8270   18.3510  187.0480 H   0  0  0  0  0  0  0  0  0  0  0  0
   50.3470   16.7690  186.7310 H   0  0  0  0  0  0  0  0  0  0  0  0
   52.7020   17.5620  186.2770 H   0  0  0  0  0  0  0  0  0  0  0  0
   52.1400   19.1490  186.1680 H   0  0  0  0  0  0  0  0  0  0  0  0
   46.8600   23.7610  182.1910 H   0  0  0  0  0  0  0  0  0  0  0  0
   44.2950   20.7890  183.9100 H   0  0  0  0  0  0  0  0  0  0  0  0
   47.7360   22.0130  183.5230 H   0  0  0  0  0  0  0  0  0  0  0  0
   47.9940   20.4680  185.5490 H   0  0  0  0  0  0  0  0  0  0  0  0
   50.8980   21.7100  190.5870 H   0  0  0  0  0  0  0  0  0  0  0  0
   52.0180   17.5900  188.7420 H   0  0  0  0  0  0  0  0  0  0  0  0
   50.9430   19.1590  190.2930 H   0  0  0  0  0  0  0  0  0  0  0  0
   53.6220   20.4350  187.3800 H   0  0  0  0  0  0  0  0  0  0  0  0
   55.4220   28.2320  195.8540 H   0  0  0  0  0  0  0  0  0  0  0  0
   54.8950   28.0100  194.2280 H   0  0  0  0  0  0  0  0  0  0  0  0
   51.1650   19.8330  194.5750 H   0  0  0  0  0  0  0  0  0  0  0  0
   49.9420   23.3180  195.1360 H   0  0  0  0  0  0  0  0  0  0  0  0
   52.5250   21.7140  190.4450 H   0  0  0  0  0  0  0  0  0  0  0  0
   50.4470   23.1350  192.5350 H   0  0  0  0  0  0  0  0  0  0  0  0
   50.8600   17.4440  184.2760 H   0  0  0  0  0  0  0  0  0  0  0  0
   50.3060   19.0220  184.6090 H   0  0  0  0  0  0  0  0  0  0  0  0
   46.6120   17.9380  185.2700 H   0  0  0  0  0  0  0  0  0  0  0  0
   47.7420   18.2740  186.4470 H   0  0  0  0  0  0  0  0  0  0  0  0
   46.8700   21.4670  183.4820 N   0  0  0  0  0  0  0  0  0  0  0  0
   53.3870   23.9340  196.2780 N   0  0  0  0  0  2  0  0  0  0  0  0
   47.5360   19.7840  184.9340 N   0  0  0  0  0  0  0  0  0  0  0  0
   52.2150   18.4020  188.1510 N   0  0  0  0  0  0  0  0  0  0  0  0
   51.6160   19.8570  189.9570 N   0  0  0  0  0  0  0  0  0  0  0  0
   53.0730   20.5410  188.2350 N   0  0  0  0  0  2  0  0  0  0  0  0
   52.7040   23.7790  193.9590 N   0  0  0  0  0  0  0  0  0  0  0  0
   53.4930   25.7430  193.2110 N   0  0  0  0  0  2  0  0  0  0  0  0
   54.9510   27.6340  195.1730 N   0  0  0  0  0  0  0  0  0  0  0  0
   54.5340   25.9850  196.7480 N   0  0  0  0  0  2  0  0  0  0  0  0
   45.9940   25.9660  180.9690 O   0  0  0  0  0  0  0  0  0  0  0  0
   40.4930   25.7400  179.8360 O   0  0  0  0  0  0  0  0  0  0  0  0
   40.8280   27.3800  181.3170 O   0  0  0  0  0  1  0  0  0  0  0  0
   46.3640   19.2770  183.0780 O   0  0  0  0  0  1  0  0  0  0  0  0
   50.3150   20.1800  194.1780 O   0  0  0  0  0  0  0  0  0  0  0  0
   49.5680   22.8510  194.3350 O   0  0  0  0  0  0  0  0  0  0  0  0
   52.7500   21.6440  193.0080 O   0  0  0  0  0  0  0  0  0  0  0  0
  1  3  1  0
  1 12  1  0
  1 26  1  0
  2 25  1  0
  2 29  1  0
  2 34  1  0
  3 77  1  0
  3 78  1  0
  4 37  1  0
  4 38  1  0
  4 39  1  0
  4 77  1  0
  5 66  1  0
  5 68  1  0
  5 79  1  0
  6  7  1  0
  6 64  1  0
  6 65  1  0
  6 68  1  0
  7  8  1  0
  7 31  1  0
  7 32  1  0
  8 21  1  0
  8 62  1  0
  8 63  1  0
  9 69  1  0
  9 70  1  0
  9 71  1  0
 10 11  1  0
 10 52  1  0
 10 60  1  0
 10 70  1  0
 11 13  1  0
 11 41  1  0
 11 82  1  0
 12 23  1  0
 12 33  1  0
 13 14  1  0
 13 30  1  0
 13 80  1  0
 14 15  1  0
 14 61  1  0
 14 81  1  0
 15 40  1  0
 15 72  1  0
 15 82  1  0
 16 42  1  0
 16 72  1  0
 16 73  1  0
 17 18  1  0
 17 20  1  0
 17 73  1  0
 18 74  1  0
 18 75  1  0
 19 43  1  0
 19 67  1  0
 19 75  1  0
 20 67  1  0
 20 72  1  0
 21 22  1  0
 21 44  1  0
 21 45  1  0
 22 46  1  0
 22 47  1  0
 22 69  1  0
 23 24  1  0
 23 76  1  0
 24 25  1  0
 24 27  1  0
 25 26  1  0
 26 35  1  0
 27 28  1  0
 27 48  1  0
 28 29  1  0
 28 66  1  0
 29 49  1  0
 36 76  1  0
 50 66  1  0
 51 68  1  0
 53 69  1  0
 54 70  1  0
 55 71  1  0
 56 74  1  0
 57 74  1  0
 58 80  1  0
 59 81  1  0
M  END
$$$$
