7pu8_A_4R7_501
     RDKit          3D

 82 86  0  0  0  0  0  0  0  0999 V2000
   42.6870   25.1370  126.0160 C   0  0  0  0  0  3  0  0  0  0  0  0
   43.8340   25.4040  129.5690 C   0  0  0  0  0  3  0  0  0  0  0  0
   41.4450   24.9550  125.2090 C   0  0  0  0  0  3  0  0  0  0  0  0
   40.0110   26.8470  125.2770 C   0  0  0  0  0  0  0  0  0  0  0  0
   48.6890   26.2240  130.0030 C   0  0  0  0  0  3  0  0  0  0  0  0
   51.0810   26.4130  130.6740 C   0  0  0  0  0  0  0  0  0  0  0  0
   51.6560   27.4150  131.6920 C   0  0  0  0  0  0  0  0  0  0  0  0
   52.1770   28.7240  131.0470 C   0  0  0  0  0  0  0  0  0  0  0  0
   52.5590   31.9870  131.6320 C   0  0  0  0  0  3  0  0  0  0  0  0
   51.2660   35.0280  130.2830 C   0  0  0  0  0  0  0  0  0  0  0  0
   50.9720   36.0180  131.4190 C   0  0  0  0  0  0  0  0  0  0  0  0
   43.9040   25.2350  125.3410 C   0  0  0  0  0  3  0  0  0  0  0  0
   49.5190   36.1470  131.8630 C   0  0  0  0  0  0  0  0  0  0  0  0
   48.9540   37.0070  130.7280 C   0  0  0  0  0  0  0  0  0  0  0  0
   50.0950   38.0370  130.6310 C   0  0  0  0  0  0  0  0  0  0  0  0
   50.3180   37.9990  128.1110 C   0  0  0  0  0  3  0  0  0  0  0  0
   50.5680   40.0490  127.6580 C   0  0  0  0  0  3  0  0  0  0  0  0
   50.7500   41.3270  127.1070 C   0  0  0  0  0  3  0  0  0  0  0  0
   50.6480   42.1390  129.2680 C   0  0  0  0  0  3  0  0  0  0  0  0
   50.4400   39.9710  129.0320 C   0  0  0  0  0  3  0  0  0  0  0  0
   52.9790   29.5840  132.0110 C   0  0  0  0  0  0  0  0  0  0  0  0
   52.5170   34.1590  130.4400 C   0  0  0  0  0  0  0  0  0  0  0  0
   45.0750   25.3880  126.0390 C   0  0  0  0  0  3  0  0  0  0  0  0
   45.0780   25.4660  127.4710 C   0  0  0  0  0  3  0  0  0  0  0  0
   43.8390   25.3450  128.1520 C   0  0  0  0  0  3  0  0  0  0  0  0
   42.6540   25.1850  127.3920 C   0  0  0  0  0  3  0  0  0  0  0  0
   46.2590   25.6190  128.2430 C   0  0  0  0  0  3  0  0  0  0  0  0
   46.2220   25.7220  129.6190 C   0  0  0  0  0  3  0  0  0  0  0  0
   44.9970   25.5620  130.2710 C   0  0  0  0  0  3  0  0  0  0  0  0
   43.9240   25.1960  124.2530 H   0  0  0  0  0  0  0  0  0  0  0  0
   51.3380   29.2900  130.6450 H   0  0  0  0  0  0  0  0  0  0  0  0
   50.3830   34.3990  130.1780 H   0  0  0  0  0  0  0  0  0  0  0  0
   51.3150   35.5490  129.3290 H   0  0  0  0  0  0  0  0  0  0  0  0
   49.0290   35.1810  131.8750 H   0  0  0  0  0  0  0  0  0  0  0  0
   49.9910   38.8470  131.3510 H   0  0  0  0  0  0  0  0  0  0  0  0
   50.6840   43.0290  129.8950 H   0  0  0  0  0  0  0  0  0  0  0  0
   53.1040   34.5130  131.2860 H   0  0  0  0  0  0  0  0  0  0  0  0
   53.1790   34.3190  129.5950 H   0  0  0  0  0  0  0  0  0  0  0  0
   51.2040   26.8180  129.6710 H   0  0  0  0  0  0  0  0  0  0  0  0
   51.6960   25.5140  130.6750 H   0  0  0  0  0  0  0  0  0  0  0  0
   41.7090   25.1070  127.9280 H   0  0  0  0  0  0  0  0  0  0  0  0
   51.6070   35.8280  132.2830 H   0  0  0  0  0  0  0  0  0  0  0  0
   48.8470   36.4170  129.8190 H   0  0  0  0  0  0  0  0  0  0  0  0
   50.2100   36.9210  128.0050 H   0  0  0  0  0  0  0  0  0  0  0  0
   53.8920   29.0590  132.2890 H   0  0  0  0  0  0  0  0  0  0  0  0
   52.4390   29.6770  132.9520 H   0  0  0  0  0  0  0  0  0  0  0  0
   47.2070   25.6940  127.7140 H   0  0  0  0  0  0  0  0  0  0  0  0
   44.9480   25.6000  131.3580 H   0  0  0  0  0  0  0  0  0  0  0  0
   47.3420   25.2570  131.2450 H   0  0  0  0  0  0  0  0  0  0  0  0
   49.5350   25.5250  131.7850 H   0  0  0  0  0  0  0  0  0  0  0  0
   54.1750   30.9510  130.9040 H   0  0  0  0  0  0  0  0  0  0  0  0
   42.8850   25.3240  130.0980 H   0  0  0  0  0  0  0  0  0  0  0  0
   51.3480   32.4680  130.1100 H   0  0  0  0  0  0  0  0  0  0  0  0
   51.5930   33.2050  132.8690 H   0  0  0  0  0  0  0  0  0  0  0  0
   51.0210   42.5030  125.4300 H   0  0  0  0  0  0  0  0  0  0  0  0
   50.8690   40.7950  125.1260 H   0  0  0  0  0  0  0  0  0  0  0  0
   46.7540   24.6420  125.5680 H   0  0  0  0  0  0  0  0  0  0  0  0
   48.4500   36.9960  133.2580 H   0  0  0  0  0  0  0  0  0  0  0  0
   47.0120   37.0830  130.6410 H   0  0  0  0  0  0  0  0  0  0  0  0
   40.6680   27.1650  124.4690 H   0  0  0  0  0  0  0  0  0  0  0  0
   40.0200   27.5960  126.0670 H   0  0  0  0  0  0  0  0  0  0  0  0
   38.9970   26.7070  124.9060 H   0  0  0  0  0  0  0  0  0  0  0  0
   50.8810   27.6470  132.4210 H   0  0  0  0  0  0  0  0  0  0  0  0
   52.4440   26.9540  132.2860 H   0  0  0  0  0  0  0  0  0  0  0  0
   52.7810   28.4870  130.1720 H   0  0  0  0  0  0  0  0  0  0  0  0
   47.4320   25.7740  130.3760 N   0  0  0  0  0  0  0  0  0  0  0  0
   50.4700   40.9840  129.8940 N   0  0  0  0  0  2  0  0  0  0  0  0
   49.6920   26.0120  130.9080 N   0  0  0  0  0  0  0  0  0  0  0  0
   53.3220   30.8870  131.4510 N   0  0  0  0  0  0  0  0  0  0  0  0
   52.2220   32.7340  130.5520 N   0  0  0  0  0  0  0  0  0  0  0  0
   52.1590   32.3650  132.8130 N   0  0  0  0  0  2  0  0  0  0  0  0
   50.2760   38.6410  129.3170 N   0  0  0  0  0  0  0  0  0  0  0  0
   50.4850   38.7910  127.0870 N   0  0  0  0  0  2  0  0  0  0  0  0
   50.8910   41.5630  125.7900 N   0  0  0  0  0  0  0  0  0  0  0  0
   50.7820   42.3650  127.9650 N   0  0  0  0  0  2  0  0  0  0  0  0
   46.2860   25.5040  125.4130 O   0  0  0  0  0  0  0  0  0  0  0  0
   40.3780   25.5330  125.7720 O   0  0  0  0  0  0  0  0  0  0  0  0
   41.3940   24.3370  124.1750 O   0  0  0  0  0  1  0  0  0  0  0  0
   48.8980   26.8080  128.9490 O   0  0  0  0  0  1  0  0  0  0  0  0
   49.4110   36.7740  133.1420 O   0  0  0  0  0  0  0  0  0  0  0  0
   47.7200   37.6600  131.0300 O   0  0  0  0  0  0  0  0  0  0  0  0
   51.2860   37.3530  130.9750 O   0  0  0  0  0  0  0  0  0  0  0  0
  1  3  1  0
  1 12  1  0
  1 26  1  0
  2 25  1  0
  2 29  1  0
  2 52  1  0
  3 77  1  0
  3 78  1  0
  4 60  1  0
  4 61  1  0
  4 62  1  0
  4 77  1  0
  5 66  1  0
  5 68  1  0
  5 79  1  0
  6  7  1  0
  6 39  1  0
  6 40  1  0
  6 68  1  0
  7  8  1  0
  7 63  1  0
  7 64  1  0
  8 21  1  0
  8 31  1  0
  8 65  1  0
  9 69  1  0
  9 70  1  0
  9 71  1  0
 10 11  1  0
 10 22  1  0
 10 32  1  0
 10 33  1  0
 11 13  1  0
 11 42  1  0
 11 82  1  0
 12 23  1  0
 12 30  1  0
 13 14  1  0
 13 34  1  0
 13 80  1  0
 14 15  1  0
 14 43  1  0
 14 81  1  0
 15 35  1  0
 15 72  1  0
 15 82  1  0
 16 44  1  0
 16 72  1  0
 16 73  1  0
 17 18  1  0
 17 20  1  0
 17 73  1  0
 18 74  1  0
 18 75  1  0
 19 36  1  0
 19 67  1  0
 19 75  1  0
 20 67  1  0
 20 72  1  0
 21 45  1  0
 21 46  1  0
 21 69  1  0
 22 37  1  0
 22 38  1  0
 22 70  1  0
 23 24  1  0
 23 76  1  0
 24 25  1  0
 24 27  1  0
 25 26  1  0
 26 41  1  0
 27 28  1  0
 27 47  1  0
 28 29  1  0
 28 66  1  0
 29 48  1  0
 49 66  1  0
 50 68  1  0
 51 69  1  0
 53 70  1  0
 54 71  1  0
 55 74  1  0
 56 74  1  0
 57 76  1  0
 58 80  1  0
 59 81  1  0
M  END
$$$$
