7qrd_L_QVR_102
     RDKit          3D

 34 36  0  0  0  0  0  0  0  0999 V2000
   24.9820   33.2880  181.8840 C   0  0  0  0  0  3  0  0  0  0  0  0
   25.4740   34.4780  181.1200 C   0  0  0  0  0  3  0  0  0  0  0  0
   25.9970   35.5600  181.6630 C   0  0  0  0  0  3  0  0  0  0  0  0
   26.4590   36.6780  180.7860 C   0  0  0  0  0  0  0  0  0  0  0  0
   27.5160   38.5220  181.7660 C   0  0  0  0  0  0  0  0  0  0  0  0
   28.5500   37.4110  181.6260 C   0  0  0  0  0  0  0  0  0  0  0  0
   27.9520   36.6340  180.4500 C   0  0  0  0  0  0  0  0  0  0  0  0
   27.4720   38.4910  184.3050 C   0  0  0  0  0  3  0  0  0  0  0  0
   27.2210   40.5470  184.7590 C   0  0  0  0  0  3  0  0  0  0  0  0
   27.2900   40.4650  183.3790 C   0  0  0  0  0  3  0  0  0  0  0  0
   27.0970   42.6440  183.1440 C   0  0  0  0  0  3  0  0  0  0  0  0
   27.0600   41.8350  185.3100 C   0  0  0  0  0  3  0  0  0  0  0  0
   24.3020   33.6730  182.6430 H   0  0  0  0  0  0  0  0  0  0  0  0
   25.3750   34.4060  180.0380 H   0  0  0  0  0  0  0  0  0  0  0  0
   25.8450   32.8880  182.4150 H   0  0  0  0  0  0  0  0  0  0  0  0
   26.1130   35.6870  182.7390 H   0  0  0  0  0  0  0  0  0  0  0  0
   28.3510   35.6290  180.3230 H   0  0  0  0  0  0  0  0  0  0  0  0
   28.6130   36.7630  182.4990 H   0  0  0  0  0  0  0  0  0  0  0  0
   27.5920   38.0190  179.0820 H   0  0  0  0  0  0  0  0  0  0  0  0
   29.8230   38.1590  180.3640 H   0  0  0  0  0  0  0  0  0  0  0  0
   27.0530   43.5320  182.5140 H   0  0  0  0  0  0  0  0  0  0  0  0
   27.5980   37.4120  184.3850 H   0  0  0  0  0  0  0  0  0  0  0  0
   26.8360   43.0150  186.9970 H   0  0  0  0  0  0  0  0  0  0  0  0
   26.9770   41.3410  187.3200 H   0  0  0  0  0  0  0  0  0  0  0  0
   25.8400   36.7180  179.8910 H   0  0  0  0  0  0  0  0  0  0  0  0
   27.6720   39.3350  181.0580 H   0  0  0  0  0  0  0  0  0  0  0  0
   27.4400   39.1270  183.0920 N   0  0  0  0  0  0  0  0  0  0  0  0
   27.3410   39.2930  185.3340 N   0  0  0  0  0  2  0  0  0  0  0  0
   27.2350   41.4790  182.5100 N   0  0  0  0  0  2  0  0  0  0  0  0
   27.0040   42.8790  184.4560 N   0  0  0  0  0  2  0  0  0  0  0  0
   26.9510   42.0780  186.6230 N   0  0  0  0  0  0  0  0  0  0  0  0
   26.2630   37.9360  181.4600 O   0  0  0  0  0  0  0  0  0  0  0  0
   29.8320   37.9580  181.3360 O   0  0  0  0  0  0  0  0  0  0  0  0
   28.2340   37.2720  179.2110 O   0  0  0  0  0  0  0  0  0  0  0  0
  1  2  1  0
  1 13  1  0
  1 15  1  0
  2  3  1  0
  2 14  1  0
  3  4  1  0
  3 16  1  0
  4  7  1  0
  4 25  1  0
  4 32  1  0
  5  6  1  0
  5 26  1  0
  5 27  1  0
  5 32  1  0
  6  7  1  0
  6 18  1  0
  6 33  1  0
  7 17  1  0
  7 34  1  0
  8 22  1  0
  8 27  1  0
  8 28  1  0
  9 10  1  0
  9 12  1  0
  9 28  1  0
 10 27  1  0
 10 29  1  0
 11 21  1  0
 11 29  1  0
 11 30  1  0
 12 30  1  0
 12 31  1  0
 19 34  1  0
 20 33  1  0
 23 31  1  0
 24 31  1  0
M  END
$$$$
