8uqh_B_X9L_501
     RDKit          3D

 60158  0  0  0  0  0  0  0  0999 V2000
   13.8020   24.0710  -25.3060 Br  0  0  0  0  0  3  0  0  0  0  0  0
   15.8760   22.8740  -30.6850 Br  0  0  0  0  0  2  0  0  0  0  0  0
   13.3030    8.0430  -22.4220 C   0  0  0  0  0  7  0  0  0  0  0  0
   13.3190    8.0260  -22.4420 C   0  0  0  0  0  7  0  0  0  0  0  0
   13.2440    7.0810  -24.5180 C   0  0  0  0  0  5  0  0  0  0  0  0
   13.2890    7.0780  -24.5440 C   0  0  0  0  0  5  0  0  0  0  0  0
   12.9440    9.3860  -24.3650 C   0  0  0  0  0  7  0  0  0  0  0  0
   12.9480    9.3990  -24.3580 C   0  0  0  0  0  7  0  0  0  0  0  0
   13.0710    9.3080  -23.0110 C   0  0  0  0  0  7  0  0  0  0  0  0
   13.0790    9.3250  -23.0030 C   0  0  0  0  0  7  0  0  0  0  0  0
   12.6980   11.3980  -23.5680 C   0  0  0  0  0  5  0  0  0  0  0  0
   12.7490   11.4180  -23.5700 C   0  0  0  0  0  5  0  0  0  0  0  0
   12.5250   11.1750  -26.0320 C   0  0  0  0  0  7  0  0  0  0  0  0
   12.5620   11.2000  -26.0320 C   0  0  0  0  0  7  0  0  0  0  0  0
   12.9190   13.1750  -26.9490 C   0  0  0  0  0  7  0  0  0  0  0  0
   12.9440   13.2180  -26.9300 C   0  0  0  0  0  7  0  0  0  0  0  0
   13.0400   14.2850  -26.0160 C   0  0  0  0  0  5  0  0  0  0  0  0
   13.0650   14.2400  -26.0420 C   0  0  0  0  0  5  0  0  0  0  0  0
   14.5590   16.5890  -27.0800 C   0  0  0  0  0  5  0  0  0  0  0  0
   14.6170   16.5500  -27.0050 C   0  0  0  0  0  5  0  0  0  0  0  0
   15.3400   17.6600  -26.3260 C   0  0  0  0  0  5  0  0  0  0  0  0
   15.4140   17.5380  -26.1580 C   0  0  0  0  0  5  0  0  0  0  0  0
   14.2310   19.7270  -26.6190 C   0  0  0  0  0  5  0  0  0  0  0  0
   14.3760   19.2550  -27.3750 C   0  0  0  0  0  0  0  0  0  0  0  0
   14.4350   21.1420  -27.1500 C   0  0  0  0  0  5  0  0  0  0  0  0
   14.5160   20.7420  -27.6430 C   0  0  0  0  0  6  0  0  0  0  0  0
   14.1820   21.5970  -26.6180 C   0  0  0  0  0  0  0  0  0  0  0  0
   14.9570   21.3250  -28.4200 C   0  0  0  0  0  5  0  0  0  0  0  0
   14.2940   22.9520  -26.8000 C   0  0  0  0  0  6  0  0  0  0  0  0
   15.1470   22.6070  -28.9060 C   0  0  0  0  0  6  0  0  0  0  0  0
   14.7400   23.4680  -28.0030 C   0  0  0  0  0  5  0  0  0  0  0  0
   14.8140   23.6970  -28.1180 C   0  0  0  0  0  5  0  0  0  0  0  0
   14.2910   23.5110  -26.8480 C   0  0  0  0  0  5  0  0  0  0  0  0
   15.0780   22.6000  -29.0360 C   0  0  0  0  0  6  0  0  0  0  0  0
   14.1030   22.2280  -26.3620 C   0  0  0  0  0  5  0  0  0  0  0  0
   14.9660   21.2310  -28.8560 C   0  0  0  0  0  0  0  0  0  0  0  0
   11.4000   12.8330  -27.1160 C   0  0  0  0  0  7  0  0  0  0  0  0
   11.4370   12.8470  -27.1380 C   0  0  0  0  0  7  0  0  0  0  0  0
   11.1770   12.1080  -26.1380 C   0  0  0  0  0  7  0  0  0  0  0  0
   11.2040   12.1170  -26.1630 C   0  0  0  0  0  7  0  0  0  0  0  0
   13.4480    7.9080  -20.9830 N   0  0  0  0  0  0  0  0  0  0  0  0
   13.4640    7.8810  -21.0040 N   0  0  0  0  0  0  0  0  0  0  0  0
   13.3760    6.9730  -23.2040 N   0  0  0  0  0  5  0  0  0  0  0  0
   13.4190    6.9630  -23.2300 N   0  0  0  0  0  5  0  0  0  0  0  0
   13.0350    8.2530  -25.0910 N   0  0  0  0  0  5  0  0  0  0  0  0
   13.0580    8.2490  -25.1060 N   0  0  0  0  0  5  0  0  0  0  0  0
   12.9140   10.5720  -22.5320 N   0  0  0  0  0  5  0  0  0  0  0  0
   12.9520   10.5940  -22.5310 N   0  0  0  0  0  5  0  0  0  0  0  0
   12.7120   10.6790  -24.6910 N   0  0  0  0  0  7  0  0  0  0  0  0
   12.7420   10.6960  -24.6920 N   0  0  0  0  0  7  0  0  0  0  0  0
   15.3250   18.8950  -27.0840 N   0  0  0  0  0  5  0  0  0  0  0  0
   15.6560   18.7360  -26.9350 N   0  0  0  0  0  5  0  0  0  0  0  0
   13.5190   11.9230  -26.3650 O   0  0  0  0  0  5  0  0  0  0  0  0
   13.5490   11.9710  -26.3370 O   0  0  0  0  0  5  0  0  0  0  0  0
   11.1900   12.0610  -28.4050 O   0  0  0  0  0  3  0  0  0  0  0  0
   11.2790   12.0790  -28.4370 O   0  0  0  0  0  3  0  0  0  0  0  0
    9.9700   11.2740  -26.3770 O   0  0  0  0  0  3  0  0  0  0  0  0
   10.0050   11.2750  -26.4170 O   0  0  0  0  0  3  0  0  0  0  0  0
   14.6830   15.0450  -26.1330 S   0  0  0  0  0  5  0  0  0  0  0  0
   14.7330   14.9240  -26.2180 S   0  0  0  0  0  5  0  0  0  0  0  0
  1 29  1  0
  1 33  1  0
  1 35  1  0
  2 30  1  0
  2 34  1  0
  3  4  1  0
  3  9  1  0
  3 10  1  0
  3 41  1  0
  3 42  1  0
  3 43  1  0
  3 44  1  0
  4  9  1  0
  4 10  1  0
  4 41  1  0
  4 42  1  0
  4 43  1  0
  4 44  1  0
  5  6  1  0
  5 43  1  0
  5 44  1  0
  5 45  1  0
  5 46  1  0
  6 43  1  0
  6 44  1  0
  6 45  1  0
  6 46  1  0
  7  8  1  0
  7  9  1  0
  7 10  1  0
  7 45  1  0
  7 46  1  0
  7 49  1  0
  7 50  1  0
  8  9  1  0
  8 10  1  0
  8 45  1  0
  8 46  1  0
  8 49  1  0
  8 50  1  0
  9 10  1  0
  9 47  1  0
  9 48  1  0
 10 47  1  0
 10 48  1  0
 11 12  1  0
 11 47  1  0
 11 48  1  0
 11 49  1  0
 11 50  1  0
 12 47  1  0
 12 48  1  0
 12 49  1  0
 12 50  1  0
 13 14  1  0
 13 39  1  0
 13 40  1  0
 13 49  1  0
 13 50  1  0
 13 53  1  0
 13 54  1  0
 14 39  1  0
 14 40  1  0
 14 49  1  0
 14 50  1  0
 14 53  1  0
 14 54  1  0
 15 16  1  0
 15 17  1  0
 15 18  1  0
 15 37  1  0
 15 38  1  0
 15 53  1  0
 15 54  1  0
 16 17  1  0
 16 18  1  0
 16 37  1  0
 16 38  1  0
 16 53  1  0
 16 54  1  0
 17 18  1  0
 17 59  1  0
 17 60  1  0
 18 59  1  0
 18 60  1  0
 19 20  1  0
 19 21  1  0
 19 22  1  0
 19 59  1  0
 19 60  1  0
 20 21  1  0
 20 22  1  0
 20 59  1  0
 20 60  1  0
 21 22  1  0
 21 51  1  0
 21 52  1  0
 22 51  1  0
 22 52  1  0
 23 24  1  0
 23 25  1  0
 23 26  1  0
 23 51  1  0
 23 52  1  0
 24 26  1  0
 24 51  1  0
 24 52  1  0
 25 26  1  0
 25 27  1  0
 25 28  1  0
 25 35  1  0
 26 27  1  0
 26 28  1  0
 26 36  1  0
 27 29  1  0
 27 35  1  0
 28 30  1  0
 28 34  1  0
 28 36  1  0
 29 31  1  0
 29 32  1  0
 29 33  1  0
 29 35  1  0
 30 31  1  0
 30 32  1  0
 30 34  1  0
 30 36  1  0
 31 32  1  0
 31 33  1  0
 31 34  1  0
 32 33  1  0
 32 34  1  0
 33 35  1  0
 34 36  1  0
 37 38  1  0
 37 39  1  0
 37 40  1  0
 37 55  1  0
 37 56  1  0
 38 39  1  0
 38 40  1  0
 38 55  1  0
 38 56  1  0
 39 40  1  0
 39 57  1  0
 39 58  1  0
 40 57  1  0
 40 58  1  0
 41 42  1  0
 43 44  1  0
 45 46  1  0
 47 48  1  0
 49 50  1  0
 51 52  1  0
 53 54  1  0
 55 56  1  0
 57 58  1  0
 59 60  1  0
M  END
$$$$
