2dsc_B_APR_401
     RDKit          3D

 36 41  0  0  0  0  0  0  0  0999 V2000
    3.4650   17.3870   70.0680 C   0  0  0  0  0  3  0  0  0  0  0  0
   -5.0970   14.6070   65.3600 C   0  0  0  0  0  3  0  0  0  0  0  0
    1.8190   16.3350   74.2130 C   0  0  0  0  0  2  0  0  0  0  0  0
    3.8220   15.9050   69.9750 C   0  0  0  0  0  3  0  0  0  0  0  0
   -4.7740   15.7280   66.3660 C   0  0  0  0  0  3  0  0  0  0  0  0
    3.2430   15.5790   68.6060 C   0  0  0  0  0  3  0  0  0  0  0  0
   -4.6830   16.9580   65.4380 C   0  0  0  0  0  3  0  0  0  0  0  0
    1.7000   17.2060   71.8370 C   0  0  0  0  0  3  0  0  0  0  0  0
    3.6650   16.7850   67.8080 C   0  0  0  0  0  3  0  0  0  0  0  0
   -4.1090   16.3810   64.1450 C   0  0  0  0  0  3  0  0  0  0  0  0
    0.3440   17.5190   71.9540 C   0  0  0  0  0  3  0  0  0  0  0  0
    2.7810   17.0250   66.5820 C   0  0  0  0  0  2  0  0  0  0  0  0
   -2.5890   16.5510   64.0920 C   0  0  0  0  0  3  0  0  0  0  0  0
   -0.3240   17.2730   73.1600 C   0  0  0  0  0  3  0  0  0  0  0  0
    1.0030   18.0560   69.9710 C   0  0  0  0  0  2  0  0  0  0  0  0
    0.3740   16.7050   74.2550 N   0  0  0  0  0  2  0  0  0  0  0  0
    2.4300   16.6350   72.9070 N   0  0  0  0  0  2  0  0  0  0  0  0
   -1.6190   17.5730   73.2870 N   0  0  0  0  0  1  0  0  0  0  0  0
   -0.0470   18.0380   70.7800 N   0  0  0  0  0  2  0  0  0  0  0  0
    2.0760   17.5500   70.6060 N   0  0  0  0  0  0  0  0  0  0  0  0
    2.0770   14.7520   63.5600 O   0  0  0  0  0  1  0  0  0  0  0  0
   -0.3480   14.9010   66.7730 O   0  0  0  0  0  1  0  0  0  0  0  0
   -6.5070   14.4630   65.1310 O   0  0  0  0  0  1  0  0  0  0  0  0
    5.2440   15.7530   70.0530 O   0  0  0  0  0  1  0  0  0  0  0  0
    2.4280   17.2060   63.5900 O   0  0  0  0  0  1  0  0  0  0  0  0
   -0.7720   14.1180   64.4280 O   0  0  0  0  0  1  0  0  0  0  0  0
   -5.8010   15.8230   67.3430 O   0  0  0  0  0  1  0  0  0  0  0  0
    3.8220   14.3930   68.1030 O   0  0  0  0  0  1  0  0  0  0  0  0
    0.4310   16.3150   64.7990 O   0  0  0  0  0  0  0  0  0  0  0  0
   -5.9700   17.5460   65.2210 O   0  0  0  0  0  1  0  0  0  0  0  0
    3.5730   17.8870   68.7100 O   0  0  0  0  0  0  0  0  0  0  0  0
   -4.3910   14.9590   64.1460 O   0  0  0  0  0  0  0  0  0  0  0  0
    2.8040   15.9120   65.6790 O   0  0  0  0  0  0  0  0  0  0  0  0
   -2.0120   16.1240   65.3390 O   0  0  0  0  0  0  0  0  0  0  0  0
    1.9540   16.0060   64.3160 P   0  0  0  0  0  5  0  0  0  0  0  0
   -0.6570   15.2590   65.3720 Pb  0  0  0  0  0  6  0  0  0  0  0  0
  1  4  1  0
  1 20  1  0
  1 31  1  0
  2  5  1  0
  2 23  1  0
  2 32  1  0
  3 16  1  0
  3 17  1  0
  4  6  1  0
  4 24  1  0
  5  7  1  0
  5 27  1  0
  6  9  1  0
  6 28  1  0
  7 10  1  0
  7 30  1  0
  8 11  1  0
  8 17  1  0
  8 20  1  0
  9 12  1  0
  9 31  1  0
 10 13  1  0
 10 32  1  0
 11 14  1  0
 11 19  1  0
 12 33  1  0
 13 34  1  0
 13 36  1  0
 14 16  1  0
 14 18  1  0
 15 19  1  0
 15 20  1  0
 21 35  1  0
 22 36  1  0
 25 35  1  0
 26 36  1  0
 29 35  1  0
 29 36  1  0
 33 35  1  0
 34 36  1  0
 35 36  1  0
M  END
$$$$
