3ac9_B_8GD_1
     RDKit          3D

 28 31  0  0  0  0  0  0  0  0999 V2000
  -22.1310   19.6170   77.2600 C   0  0  0  0  0  3  0  0  0  0  0  0
  -18.2560   21.4270   77.4690 C   0  0  0  0  0  3  0  0  0  0  0  0
  -23.5570   19.6210   76.7390 C   0  0  0  0  0  2  0  0  0  0  0  0
  -23.4590   18.6470   75.5710 C   0  0  0  0  0  3  0  0  0  0  0  0
  -20.4360   21.3470   77.8980 C   0  0  0  0  0  3  0  0  0  0  0  0
  -22.0580   18.8950   75.0080 C   0  0  0  0  0  3  0  0  0  0  0  0
  -20.4720   22.5360   78.5850 C   0  0  0  0  0  3  0  0  0  0  0  0
  -21.9900   19.7880   73.7700 C   0  0  0  0  0  2  0  0  0  0  0  0
  -19.2760   23.2650   78.7450 C   0  0  0  0  0  3  0  0  0  0  0  0
  -22.4820   21.8050   78.5980 C   0  0  0  0  0  3  0  0  0  0  0  0
  -18.1920   22.6240   78.1460 N   0  0  0  0  0  2  0  0  0  0  0  0
  -17.1090   20.9590   76.9490 N   0  0  0  0  0  1  0  0  0  0  0  0
  -19.3740   20.7330   77.3150 N   0  0  0  0  0  2  0  0  0  0  0  0
  -21.7580   22.8110   79.0180 N   0  0  0  0  0  2  0  0  0  0  0  0
  -21.7280   20.8790   77.9070 N   0  0  0  0  0  0  0  0  0  0  0  0
  -23.4520   18.3260   70.4630 O   0  0  0  0  0  1  0  0  0  0  0  0
  -26.6380   18.0430   72.0580 O   0  0  0  0  0  1  0  0  0  0  0  0
  -24.1450   20.3900   71.8220 O   0  0  0  0  0  1  0  0  0  0  0  0
  -26.0900   18.7970   74.4000 O   0  0  0  0  0  1  0  0  0  0  0  0
  -23.5160   17.3120   76.0640 O   0  0  0  0  0  1  0  0  0  0  0  0
  -24.3190   18.0090   72.8070 O   0  0  0  0  0  0  0  0  0  0  0  0
  -25.9730   16.4260   73.8040 O   0  0  0  0  0  1  0  0  0  0  0  0
  -21.2930   19.4390   76.1170 O   0  0  0  0  0  0  0  0  0  0  0  0
  -22.1670   18.9810   72.5780 O   0  0  0  0  0  0  0  0  0  0  0  0
  -19.1160   24.3420   79.3280 O   0  0  0  0  0  1  0  0  0  0  0  0
  -23.6920   21.7420   78.8220 O   0  0  0  0  0  1  0  0  0  0  0  0
  -23.5460   19.0180   71.7740 P   0  0  0  0  0  5  0  0  0  0  0  0
  -25.8340   17.9180   73.2820 Pb  0  0  0  0  0  5  0  0  0  0  0  0
  1  3  1  0
  1 15  1  0
  1 23  1  0
  2 11  1  0
  2 12  1  0
  2 13  1  0
  3  4  1  0
  4  6  1  0
  4 20  1  0
  5  7  1  0
  5 13  1  0
  5 15  1  0
  6  8  1  0
  6 23  1  0
  7  9  1  0
  7 14  1  0
  8 24  1  0
  9 11  1  0
  9 25  1  0
 10 14  1  0
 10 15  1  0
 10 26  1  0
 16 27  1  0
 17 28  1  0
 18 27  1  0
 19 28  1  0
 21 27  1  0
 21 28  1  0
 22 28  1  0
 24 27  1  0
 27 28  1  0
M  END
$$$$
