5qj5_D_K0G_303
     RDKit          3D

 16 17  0  0  0  0  0  0  0  0999 V2000
  -32.9910   12.2510  -59.9430 C   0  0  0  0  0  3  0  0  0  0  0  0
  -34.6850   11.3210  -58.2590 C   0  0  0  0  0  3  0  0  0  0  0  0
  -29.9440   14.3380  -63.3930 C   0  0  0  0  0  2  0  0  0  0  0  0
  -30.8590   14.8020  -61.2820 C   0  0  0  0  0  2  0  0  0  0  0  0
  -34.8420   11.2080  -56.8380 C   0  0  0  0  0  2  0  0  0  0  0  0
  -35.9590   10.5930  -56.3060 C   0  0  0  0  0  2  0  0  0  0  0  0
  -36.9480   10.0790  -57.1480 C   0  0  0  0  0  2  0  0  0  0  0  0
  -36.8010   10.1490  -58.5250 C   0  0  0  0  0  2  0  0  0  0  0  0
  -35.6700   10.7730  -59.1180 C   0  0  0  0  0  2  0  0  0  0  0  0
  -31.1190   13.4420  -61.0600 C   0  0  0  0  0  3  0  0  0  0  0  0
  -30.7170   12.4980  -62.0270 C   0  0  0  0  0  2  0  0  0  0  0  0
  -30.1340   12.9540  -63.2110 C   0  0  0  0  0  2  0  0  0  0  0  0
  -33.5370   12.0780  -58.6620 N   0  0  0  0  0  2  0  0  0  0  0  0
  -31.8480   13.0990  -59.9120 N   0  0  0  0  0  2  0  0  0  0  0  0
  -30.2920   15.2750  -62.4350 N   0  0  0  0  0  2  0  0  0  0  0  0
  -33.4300   11.7510  -60.9910 O   0  0  0  0  0  1  0  0  0  0  0  0
  1 13  1  0
  1 14  1  0
  1 16  1  0
  2  5  1  0
  2  9  1  0
  2 13  1  0
  3 12  1  0
  3 15  1  0
  4 10  1  0
  4 15  1  0
  5  6  1  0
  6  7  1  0
  7  8  1  0
  8  9  1  0
 10 11  1  0
 10 14  1  0
 11 12  1  0
M  END
$$$$
