5qj5_B_K0G_304
     RDKit          3D

 16 17  0  0  0  0  0  0  0  0999 V2000
   -8.1850    2.6590   -3.0020 C   0  0  0  0  0  3  0  0  0  0  0  0
   -7.4430    4.1090   -4.9250 C   0  0  0  0  0  3  0  0  0  0  0  0
   -9.9540    0.1090    1.0070 C   0  0  0  0  0  2  0  0  0  0  0  0
  -10.1480    0.1620   -1.3200 C   0  0  0  0  0  2  0  0  0  0  0  0
   -7.6810    5.3770   -4.3000 C   0  0  0  0  0  2  0  0  0  0  0  0
   -7.4000    6.5450   -5.0120 C   0  0  0  0  0  2  0  0  0  0  0  0
   -6.8980    6.4840   -6.3120 C   0  0  0  0  0  2  0  0  0  0  0  0
   -6.6510    5.2420   -6.9130 C   0  0  0  0  0  2  0  0  0  0  0  0
   -6.9110    4.0650   -6.2380 C   0  0  0  0  0  2  0  0  0  0  0  0
   -8.9290    0.8800   -1.4450 C   0  0  0  0  0  3  0  0  0  0  0  0
   -8.2110    1.1770   -0.2780 C   0  0  0  0  0  2  0  0  0  0  0  0
   -8.7350    0.7930    0.9620 C   0  0  0  0  0  2  0  0  0  0  0  0
   -7.8170    2.8690   -4.3220 N   0  0  0  0  0  2  0  0  0  0  0  0
   -8.5170    1.3140   -2.7230 N   0  0  0  0  0  2  0  0  0  0  0  0
  -10.6660   -0.2160   -0.1070 N   0  0  0  0  0  2  0  0  0  0  0  0
   -8.2270    3.5630   -2.1440 O   0  0  0  0  0  1  0  0  0  0  0  0
  1 13  1  0
  1 14  1  0
  1 16  1  0
  2  5  1  0
  2  9  1  0
  2 13  1  0
  3 12  1  0
  3 15  1  0
  4 10  1  0
  4 15  1  0
  5  6  1  0
  6  7  1  0
  7  8  1  0
  8  9  1  0
 10 11  1  0
 10 14  1  0
 11 12  1  0
M  END
$$$$
