5qjb_C_K07_304
     RDKit          3D

 15 16  0  0  0  0  0  0  0  0999 V2000
  -22.0660   27.9910  -54.6670 C   0  0  0  0  0  1  0  0  0  0  0  0
  -22.3410   30.4610  -55.3940 C   0  0  0  0  0  2  0  0  0  0  0  0
  -22.2970   30.8360  -53.8860 C   0  0  0  0  0  3  0  0  0  0  0  0
  -22.0740   32.3510  -53.7040 C   0  0  0  0  0  2  0  0  0  0  0  0
  -23.3180   32.8210  -52.9350 C   0  0  0  0  0  2  0  0  0  0  0  0
  -23.6440   30.5700  -53.1640 C   0  0  0  0  0  2  0  0  0  0  0  0
  -22.6540   28.6150  -57.0870 C   0  0  0  0  0  3  0  0  0  0  0  0
  -22.5290   29.3930  -59.3250 C   0  0  0  0  0  2  0  0  0  0  0  0
  -23.2140   27.2150  -59.0250 C   0  0  0  0  0  2  0  0  0  0  0  0
  -23.1090   27.3440  -57.6410 C   0  0  0  0  0  3  0  0  0  0  0  0
  -23.5620   25.9210  -56.8560 Cl  0  0  0  0  0  0  0  0  0  0  0  0
  -22.3760   28.9760  -55.7360 N   0  0  0  0  0  0  0  0  0  0  0  0
  -22.3740   29.6520  -58.0070 N   0  0  0  0  0  2  0  0  0  0  0  0
  -22.9320   28.2070  -59.8930 N   0  0  0  0  0  2  0  0  0  0  0  0
  -23.8660   31.6780  -52.3200 O   0  0  0  0  0  0  0  0  0  0  0  0
  1 12  1  0
  2  3  1  0
  2 12  1  0
  3  4  1  0
  3  6  1  0
  4  5  1  0
  5 15  1  0
  6 15  1  0
  7 10  1  0
  7 12  1  0
  7 13  1  0
  8 13  1  0
  8 14  1  0
  9 10  1  0
  9 14  1  0
 10 11  1  0
M  END
$$$$
