5qjc_C_K0J_304
     RDKit          3D

 10 10  0  0  0  0  0  0  0  0999 V2000
  -27.0620   10.6450  -62.6010 C   0  0  0  0  0  1  0  0  0  0  0  0
  -28.2730    9.7380  -62.7790 C   0  0  0  0  0  2  0  0  0  0  0  0
  -28.7560    7.4590  -63.5210 C   0  0  0  0  0  3  0  0  0  0  0  0
  -28.2220    6.2190  -64.0670 C   0  0  0  0  0  3  0  0  0  0  0  0
  -28.9300    5.0430  -64.3100 C   0  0  0  0  0  2  0  0  0  0  0  0
  -27.8450    8.4520  -63.2970 N   0  0  0  0  0  2  0  0  0  0  0  0
  -28.0130    4.2240  -64.9420 N   0  0  0  0  0  2  0  0  0  0  0  0
  -26.8180    4.8820  -65.0630 N   0  0  0  0  0  2  0  0  0  0  0  0
  -26.9130    6.0500  -64.5500 N   0  0  0  0  0  2  0  0  0  0  0  0
  -29.9690    7.5870  -63.3030 O   0  0  0  0  0  1  0  0  0  0  0  0
  1  2  1  0
  2  6  1  0
  3  4  1  0
  3  6  1  0
  3 10  1  0
  4  5  1  0
  4  9  1  0
  5  7  1  0
  7  8  1  0
  8  9  1  0
M  END
$$$$
