5qje_B_K0P_304
     RDKit          3D

 17 18  0  0  0  0  0  0  0  0999 V2000
  -23.1860  -14.8970   -8.2270 C   0  0  0  0  0  1  0  0  0  0  0  0
  -22.8020  -16.3720   -8.3310 C   0  0  0  0  0  2  0  0  0  0  0  0
  -17.3230  -14.0480   -3.3460 C   0  0  0  0  0  2  0  0  0  0  0  0
  -19.2440  -16.6990   -8.0690 C   0  0  0  0  0  2  0  0  0  0  0  0
  -20.9880  -17.1170   -6.7030 C   0  0  0  0  0  2  0  0  0  0  0  0
  -19.6130  -17.1740   -6.7740 C   0  0  0  0  0  3  0  0  0  0  0  0
  -18.6860  -17.6150   -5.7280 C   0  0  0  0  0  2  0  0  0  0  0  0
  -17.0950  -15.6320   -5.3290 C   0  0  0  0  0  3  0  0  0  0  0  0
  -16.6120  -14.5170   -4.4770 C   0  0  0  0  0  3  0  0  0  0  0  0
  -15.4000  -13.8830   -4.8200 C   0  0  0  0  0  2  0  0  0  0  0  0
  -14.9430  -12.8370   -4.0620 C   0  0  0  0  0  2  0  0  0  0  0  0
  -15.6880  -12.4570   -2.9650 C   0  0  0  0  0  2  0  0  0  0  0  0
  -21.4050  -16.6140   -7.9270 N   0  0  0  0  0  0  0  0  0  0  0  0
  -18.1750  -16.4680   -4.9120 N   0  0  0  0  0  2  0  0  0  0  0  0
  -16.8620  -13.0280   -2.5950 N   0  0  0  0  0  2  0  0  0  0  0  0
  -20.3540  -16.3560   -8.7670 N   0  0  0  0  0  2  0  0  0  0  0  0
  -16.5210  -15.7910   -6.4080 O   0  0  0  0  0  1  0  0  0  0  0  0
  1  2  1  0
  2 13  1  0
  3  9  1  0
  3 15  1  0
  4  6  1  0
  4 16  1  0
  5  6  1  0
  5 13  1  0
  6  7  1  0
  7 14  1  0
  8  9  1  0
  8 14  1  0
  8 17  1  0
  9 10  1  0
 10 11  1  0
 11 12  1  0
 12 15  1  0
 13 16  1  0
M  END
$$$$
