5qjh_A_K0Y_304
     RDKit          3D

 14 14  0  0  0  0  0  0  0  0999 V2000
  -20.5320  -19.9750   -3.3250 C   0  0  0  0  0  1  0  0  0  0  0  0
  -19.8320  -17.7030   -3.9620 C   0  0  0  0  0  3  0  0  0  0  0  0
  -19.9480  -16.2230   -3.6520 C   0  0  0  0  0  2  0  0  0  0  0  0
  -18.0490  -14.6110   -3.3010 C   0  0  0  0  0  3  0  0  0  0  0  0
  -16.8570  -13.9560   -3.8370 C   0  0  0  0  0  3  0  0  0  0  0  0
  -16.0940  -12.9420   -3.1580 C   0  0  0  0  0  2  0  0  0  0  0  0
  -15.1000  -12.6360   -4.0320 C   0  0  0  0  0  3  0  0  0  0  0  0
  -13.9640  -11.7140   -3.9830 C   0  0  0  0  0  1  0  0  0  0  0  0
  -18.7290  -15.5120   -4.1250 N   0  0  0  0  0  2  0  0  0  0  0  0
  -16.3080  -14.2050   -5.0380 N   0  0  0  0  0  2  0  0  0  0  0  0
  -20.0770  -18.6530   -2.9840 O   0  0  0  0  0  0  0  0  0  0  0  0
  -19.5190  -18.1280   -5.0640 O   0  0  0  0  0  1  0  0  0  0  0  0
  -18.3950  -14.3520   -2.1700 O   0  0  0  0  0  1  0  0  0  0  0  0
  -15.2380  -13.4010   -5.1670 O   0  0  0  0  0  0  0  0  0  0  0  0
  1 11  1  0
  2  3  1  0
  2 11  1  0
  2 12  1  0
  3  9  1  0
  4  5  1  0
  4  9  1  0
  4 13  1  0
  5  6  1  0
  5 10  1  0
  6  7  1  0
  7  8  1  0
  7 14  1  0
 10 14  1  0
M  END
$$$$
