5qjk_B_K1D_304
     RDKit          3D

 13 15  0  0  0  0  0  0  0  0999 V2000
  -15.8490  -16.0010   -7.9420 C   0  0  0  0  0  2  0  0  0  0  0  0
  -15.3030  -14.7790   -7.1470 C   0  0  0  0  0  2  0  0  0  0  0  0
  -17.0370  -16.1490   -6.9240 C   0  0  0  0  0  2  0  0  0  0  0  0
  -16.6620  -14.5640   -4.9150 C   0  0  0  0  0  3  0  0  0  0  0  0
  -18.0100  -14.4330   -3.0370 C   0  0  0  0  0  2  0  0  0  0  0  0
  -16.2840  -12.9240   -3.1440 C   0  0  0  0  0  3  0  0  0  0  0  0
  -14.6270  -11.7190   -3.8750 C   0  0  0  0  0  2  0  0  0  0  0  0
  -15.9170  -13.4700   -4.4030 C   0  0  0  0  0  3  0  0  0  0  0  0
  -16.2260  -15.1970   -6.0650 N   0  0  0  0  0  0  0  0  0  0  0  0
  -17.7250  -15.0510   -4.2270 N   0  0  0  0  0  2  0  0  0  0  0  0
  -17.3550  -13.4150   -2.4380 N   0  0  0  0  0  2  0  0  0  0  0  0
  -15.4410  -11.8190   -2.8410 N   0  0  0  0  0  2  0  0  0  0  0  0
  -14.8770  -12.6780   -4.8360 N   0  0  0  0  0  2  0  0  0  0  0  0
  1  2  1  0
  1  3  1  0
  2  9  1  0
  3  9  1  0
  4  8  1  0
  4  9  1  0
  4 10  1  0
  5 10  1  0
  5 11  1  0
  6  8  1  0
  6 11  1  0
  6 12  1  0
  7 12  1  0
  7 13  1  0
  8 13  1  0
M  END
$$$$
