5qjk_A_K1D_304
     RDKit          3D

 13 15  0  0  0  0  0  0  0  0999 V2000
   -3.2950    6.2840    2.2250 C   0  0  0  0  0  2  0  0  0  0  0  0
   -4.2110    4.9920    2.1760 C   0  0  0  0  0  2  0  0  0  0  0  0
   -2.2470    5.5350    3.1150 C   0  0  0  0  0  2  0  0  0  0  0  0
   -2.8750    3.0160    3.4880 C   0  0  0  0  0  3  0  0  0  0  0  0
   -1.8150    1.4980    4.9030 C   0  0  0  0  0  2  0  0  0  0  0  0
   -3.4230    0.6430    3.5680 C   0  0  0  0  0  3  0  0  0  0  0  0
   -4.9320    0.4650    2.0380 C   0  0  0  0  0  2  0  0  0  0  0  0
   -3.6310    1.9430    3.0160 C   0  0  0  0  0  3  0  0  0  0  0  0
   -3.0990    4.3000    2.9550 N   0  0  0  0  0  0  0  0  0  0  0  0
   -1.9550    2.7850    4.4270 N   0  0  0  0  0  2  0  0  0  0  0  0
   -2.5090    0.3770    4.5480 N   0  0  0  0  0  2  0  0  0  0  0  0
   -4.2440   -0.2500    2.9390 N   0  0  0  0  0  2  0  0  0  0  0  0
   -4.5790    1.8160    2.0480 N   0  0  0  0  0  2  0  0  0  0  0  0
  1  2  1  0
  1  3  1  0
  2  9  1  0
  3  9  1  0
  4  8  1  0
  4  9  1  0
  4 10  1  0
  5 10  1  0
  5 11  1  0
  6  8  1  0
  6 11  1  0
  6 12  1  0
  7 12  1  0
  7 13  1  0
  8 13  1  0
M  END
$$$$
