5qjm_B_K1G_305
     RDKit          3D

 15 16  0  0  0  0  0  0  0  0999 V2000
  -20.0030  -18.4730   -6.7020 C   0  0  0  0  0  1  0  0  0  0  0  0
  -19.5820  -17.0110   -7.0460 C   0  0  0  0  0  3  0  0  0  0  0  0
  -20.6340  -16.3810   -7.9450 C   0  0  0  0  0  1  0  0  0  0  0  0
  -20.1120  -16.3290   -4.5830 C   0  0  0  0  0  1  0  0  0  0  0  0
  -18.1120  -15.2720   -5.7620 C   0  0  0  0  0  3  0  0  0  0  0  0
  -16.2070  -14.3500   -6.9020 C   0  0  0  0  0  2  0  0  0  0  0  0
  -16.5870  -13.6430   -4.7810 C   0  0  0  0  0  3  0  0  0  0  0  0
  -15.3990  -11.9530   -3.3430 C   0  0  0  0  0  1  0  0  0  0  0  0
  -18.2130  -14.1680   -3.2690 C   0  0  0  0  0  2  0  0  0  0  0  0
  -17.7530  -14.4700   -4.6170 C   0  0  0  0  0  3  0  0  0  0  0  0
  -19.3060  -16.1380   -5.7950 N   0  0  0  0  0  0  0  0  0  0  0  0
  -17.3030  -15.1910   -6.9060 N   0  0  0  0  0  2  0  0  0  0  0  0
  -15.7780  -13.5520   -5.9050 N   0  0  0  0  0  2  0  0  0  0  0  0
  -16.4440  -12.9460   -3.6070 N   0  0  0  0  0  0  0  0  0  0  0  0
  -17.4110  -13.2630   -2.7000 N   0  0  0  0  0  2  0  0  0  0  0  0
  1  2  1  0
  2  3  1  0
  2 11  1  0
  4 11  1  0
  5 10  1  0
  5 11  1  0
  5 12  1  0
  6 12  1  0
  6 13  1  0
  7 10  1  0
  7 13  1  0
  7 14  1  0
  8 14  1  0
  9 10  1  0
  9 15  1  0
 14 15  1  0
M  END
$$$$
