5qjo_A_K41_304
     RDKit          3D

 12 12  0  0  0  0  0  0  0  0999 V2000
   -0.6740    6.6350    2.5080 C   0  0  0  0  0  1  0  0  0  0  0  0
   -2.0450    6.5570    3.1960 C   0  0  0  0  0  3  0  0  0  0  0  0
   -3.0240    7.6630    2.6930 C   0  0  0  0  0  1  0  0  0  0  0  0
   -2.6690    5.1280    2.9620 C   0  0  0  0  0  3  0  0  0  0  0  0
   -2.4900    2.7320    3.7260 C   0  0  0  0  0  3  0  0  0  0  0  0
   -4.4800   -0.0050    2.7140 C   0  0  0  0  0  1  0  0  0  0  0  0
   -2.1000    4.0710    3.7420 N   0  0  0  0  0  2  0  0  0  0  0  0
   -1.8940    1.6720    4.5160 N   0  0  0  0  0  2  0  0  0  0  0  0
   -2.5570    0.5950    4.2560 N   0  0  0  0  0  2  0  0  0  0  0  0
   -3.5370    0.9140    3.3360 N   0  0  0  0  0  0  0  0  0  0  0  0
   -3.5310    2.2310    2.9870 N   0  0  0  0  0  2  0  0  0  0  0  0
   -3.5690    4.9090    2.1690 O   0  0  0  0  0  1  0  0  0  0  0  0
  1  2  1  0
  2  3  1  0
  2  4  1  0
  4  7  1  0
  4 12  1  0
  5  7  1  0
  5  8  1  0
  5 11  1  0
  6 10  1  0
  8  9  1  0
  9 10  1  0
 10 11  1  0
M  END
$$$$
