5qjp_C_K1P_304
     RDKit          3D

 13 14  0  0  0  0  0  0  0  0999 V2000
  -27.7480    9.4620  -62.7370 C   0  0  0  0  0  1  0  0  0  0  0  0
  -27.7510    8.0630  -63.2230 C   0  0  0  0  0  3  0  0  0  0  0  0
  -28.8030    6.1090  -63.5750 C   0  0  0  0  0  3  0  0  0  0  0  0
  -29.3670    3.6600  -63.5470 C   0  0  0  0  0  2  0  0  0  0  0  0
  -29.9190    2.7350  -64.6480 C   0  0  0  0  0  2  0  0  0  0  0  0
  -31.4610    2.7220  -64.7580 C   0  0  0  0  0  2  0  0  0  0  0  0
  -32.2510    4.5040  -63.0270 C   0  0  0  0  0  2  0  0  0  0  0  0
  -31.2440    5.4890  -63.6990 C   0  0  0  0  0  2  0  0  0  0  0  0
  -26.6920    7.4840  -63.7630 N   0  0  0  0  0  2  0  0  0  0  0  0
  -28.9640    7.3340  -63.0900 N   0  0  0  0  0  2  0  0  0  0  0  0
  -29.7760    5.1140  -63.6270 N   0  0  0  0  0  0  0  0  0  0  0  0
  -32.0730    3.0820  -63.4470 N   0  0  0  0  0  2  0  0  0  0  0  0
  -27.1340    5.9000  -64.1790 S   0  0  0  0  0  0  0  0  0  0  0  0
  1  2  1  0
  2  9  1  0
  2 10  1  0
  3 10  1  0
  3 11  1  0
  3 13  1  0
  4  5  1  0
  4 11  1  0
  5  6  1  0
  6 12  1  0
  7  8  1  0
  7 12  1  0
  8 11  1  0
  9 13  1  0
M  END
$$$$
