5qjq_C_K1S_304
     RDKit          3D

 15 16  0  0  0  0  0  0  0  0999 V2000
  -21.8430   27.5200  -53.8930 C   0  0  0  0  0  1  0  0  0  0  0  0
  -22.8560   28.5300  -54.4610 C   0  0  0  0  0  2  0  0  0  0  0  0
  -21.3780   30.4480  -55.1780 C   0  0  0  0  0  2  0  0  0  0  0  0
  -22.2100   31.6930  -54.9360 C   0  0  0  0  0  1  0  0  0  0  0  0
  -22.1320   28.6710  -56.8980 C   0  0  0  0  0  3  0  0  0  0  0  0
  -22.5320   27.3470  -57.1400 C   0  0  0  0  0  2  0  0  0  0  0  0
  -22.5850   26.7860  -58.4340 C   0  0  0  0  0  3  0  0  0  0  0  0
  -23.0490   25.3980  -58.5710 C   0  0  0  0  0  1  0  0  0  0  0  0
  -21.8010   28.7580  -59.3220 C   0  0  0  0  0  3  0  0  0  0  0  0
  -21.0850   30.7890  -59.4500 C   0  0  0  0  0  2  0  0  0  0  0  0
  -22.1920   29.2400  -55.5790 N   0  0  0  0  0  0  0  0  0  0  0  0
  -22.2270   27.4390  -59.5510 N   0  0  0  0  0  2  0  0  0  0  0  0
  -21.3440   29.6900  -60.2020 N   0  0  0  0  0  2  0  0  0  0  0  0
  -21.3140   30.6630  -58.1300 N   0  0  0  0  0  2  0  0  0  0  0  0
  -21.7650   29.3730  -58.0180 N   0  0  0  0  0  0  0  0  0  0  0  0
  1  2  1  0
  2 11  1  0
  3  4  1  0
  3 11  1  0
  5  6  1  0
  5 11  1  0
  5 15  1  0
  6  7  1  0
  7  8  1  0
  7 12  1  0
  9 12  1  0
  9 13  1  0
  9 15  1  0
 10 13  1  0
 10 14  1  0
 14 15  1  0
M  END
$$$$
