5qjs_A_K1Y_304
     RDKit          3D

 17 18  0  0  0  0  0  0  0  0999 V2000
    0.5450    2.8830    8.1290 C   0  0  0  0  0  1  0  0  0  0  0  0
   -1.1290    2.4490    6.3390 C   0  0  0  0  0  3  0  0  0  0  0  0
   -4.2490    6.7030    2.0880 C   0  0  0  0  0  2  0  0  0  0  0  0
   -4.3710    5.3510    2.4640 C   0  0  0  0  0  2  0  0  0  0  0  0
   -2.7740    2.5530    4.4600 C   0  0  0  0  0  3  0  0  0  0  0  0
   -4.2900    1.1800    3.1060 C   0  0  0  0  0  3  0  0  0  0  0  0
   -5.0600    0.0910    2.4960 C   0  0  0  0  0  1  0  0  0  0  0  0
   -3.3690    3.2210    3.3700 C   0  0  0  0  0  3  0  0  0  0  0  0
   -3.2350    4.6530    2.9510 C   0  0  0  0  0  3  0  0  0  0  0  0
   -1.9920    5.3570    3.0340 C   0  0  0  0  0  2  0  0  0  0  0  0
   -1.8960    6.7030    2.6600 C   0  0  0  0  0  2  0  0  0  0  0  0
   -3.0260    7.3780    2.1890 C   0  0  0  0  0  2  0  0  0  0  0  0
   -1.8530    3.1430    5.3570 N   0  0  0  0  0  2  0  0  0  0  0  0
   -4.2340    2.3890    2.6150 N   0  0  0  0  0  2  0  0  0  0  0  0
   -0.2940    3.3390    7.0460 O   0  0  0  0  0  0  0  0  0  0  0  0
   -1.2050    1.2510    6.5950 O   0  0  0  0  0  1  0  0  0  0  0  0
   -3.3470    0.8830    4.5110 S   0  0  0  0  0  0  0  0  0  0  0  0
  1 15  1  0
  2 13  1  0
  2 15  1  0
  2 16  1  0
  3  4  1  0
  3 12  1  0
  4  9  1  0
  5  8  1  0
  5 13  1  0
  5 17  1  0
  6  7  1  0
  6 14  1  0
  6 17  1  0
  8  9  1  0
  8 14  1  0
  9 10  1  0
 10 11  1  0
 11 12  1  0
M  END
$$$$
