5qju_A_K2G_304
     RDKit          3D

 13 13  0  0  0  0  0  0  0  0999 V2000
  -15.9280  -15.0330   -8.2160 C   0  0  0  0  0  1  0  0  0  0  0  0
  -15.1540  -15.3160   -6.9220 C   0  0  0  0  0  3  0  0  0  0  0  0
  -14.1140  -14.2390   -6.6480 C   0  0  0  0  0  1  0  0  0  0  0  0
  -16.1780  -15.4400   -5.7960 C   0  0  0  0  0  3  0  0  0  0  0  0
  -18.1230  -16.5220   -5.0720 C   0  0  0  0  0  2  0  0  0  0  0  0
  -18.2040  -15.6920   -3.9840 C   0  0  0  0  0  3  0  0  0  0  0  0
  -17.1630  -14.7270   -3.8370 C   0  0  0  0  0  3  0  0  0  0  0  0
  -17.0580  -13.8300   -2.6740 C   0  0  0  0  0  3  0  0  0  0  0  0
  -19.4980  -15.9040   -2.9710 Cl  0  0  0  0  0  0  0  0  0  0  0  0
  -17.1150  -16.4160   -5.9750 N   0  0  0  0  0  2  0  0  0  0  0  0
  -16.1490  -14.5800   -4.7340 N   0  0  0  0  0  2  0  0  0  0  0  0
  -16.3020  -12.7330   -2.8500 N   0  0  0  0  0  1  0  0  0  0  0  0
  -17.6040  -14.0710   -1.6170 O   0  0  0  0  0  1  0  0  0  0  0  0
  1  2  1  0
  2  3  1  0
  2  4  1  0
  4 10  1  0
  4 11  1  0
  5  6  1  0
  5 10  1  0
  6  7  1  0
  6  9  1  0
  7  8  1  0
  7 11  1  0
  8 12  1  0
  8 13  1  0
M  END
$$$$
