5qjv_D_K2J_303
     RDKit          3D

 10 10  0  0  0  0  0  0  0  0999 V2000
  -27.7010   10.2290  -62.4940 C   0  0  0  0  0  1  0  0  0  0  0  0
  -27.2810    8.0140  -63.4830 C   0  0  0  0  0  3  0  0  0  0  0  0
  -29.0880    6.5590  -63.7960 C   0  0  0  0  0  2  0  0  0  0  0  0
  -28.2330    5.5450  -64.2200 C   0  0  0  0  0  2  0  0  0  0  0  0
  -26.8320    5.8740  -64.2540 C   0  0  0  0  0  3  0  0  0  0  0  0
  -26.2520    3.6080  -65.1790 C   0  0  0  0  0  1  0  0  0  0  0  0
  -26.7980    9.2210  -63.0530 N   0  0  0  0  0  2  0  0  0  0  0  0
  -28.6760    7.7870  -63.4280 N   0  0  0  0  0  2  0  0  0  0  0  0
  -26.3120    7.0960  -63.8870 N   0  0  0  0  0  2  0  0  0  0  0  0
  -25.9240    4.9410  -64.7040 O   0  0  0  0  0  0  0  0  0  0  0  0
  1  7  1  0
  2  7  1  0
  2  8  1  0
  2  9  1  0
  3  4  1  0
  3  8  1  0
  4  5  1  0
  5  9  1  0
  5 10  1  0
  6 10  1  0
M  END
$$$$
