5qjw_D_K2M_303
     RDKit          3D

 16 17  0  0  0  0  0  0  0  0999 V2000
  -23.4380   33.0930  -55.6280 C   0  0  0  0  0  3  0  0  0  0  0  0
  -22.4820   30.7330  -55.7240 C   0  0  0  0  0  2  0  0  0  0  0  0
  -22.7200   29.4050  -56.4960 C   0  0  0  0  0  2  0  0  0  0  0  0
  -21.9060   30.8040  -58.4530 C   0  0  0  0  0  2  0  0  0  0  0  0
  -22.4390   32.1100  -57.7470 C   0  0  0  0  0  2  0  0  0  0  0  0
  -22.6120   28.3520  -58.8360 C   0  0  0  0  0  3  0  0  0  0  0  0
  -23.0910   27.0090  -58.3680 C   0  0  0  0  0  3  0  0  0  0  0  0
  -23.4250   26.4320  -57.1690 C   0  0  0  0  0  2  0  0  0  0  0  0
  -23.8210   25.0890  -57.4530 C   0  0  0  0  0  2  0  0  0  0  0  0
  -23.6920   24.9360  -58.7800 C   0  0  0  0  0  2  0  0  0  0  0  0
  -24.0130   32.8720  -54.3870 N   0  0  0  0  0  1  0  0  0  0  0  0
  -23.1140   31.8790  -56.4280 N   0  0  0  0  0  0  0  0  0  0  0  0
  -22.5300   29.5080  -57.9730 N   0  0  0  0  0  0  0  0  0  0  0  0
  -23.2390   34.2570  -55.9950 O   0  0  0  0  0  1  0  0  0  0  0  0
  -22.2950   28.4360  -60.0200 O   0  0  0  0  0  1  0  0  0  0  0  0
  -23.2570   26.0890  -59.3570 O   0  0  0  0  0  0  0  0  0  0  0  0
  1 11  1  0
  1 12  1  0
  1 14  1  0
  2  3  1  0
  2 12  1  0
  3 13  1  0
  4  5  1  0
  4 13  1  0
  5 12  1  0
  6  7  1  0
  6 13  1  0
  6 15  1  0
  7  8  1  0
  7 16  1  0
  8  9  1  0
  9 10  1  0
 10 16  1  0
M  END
$$$$
