5qk2_B_JH4_305
     RDKit          3D

  8  8  0  0  0  0  0  0  0  0999 V2000
  -13.9760  -11.6770   -3.7200 C   0  0  0  0  0  1  0  0  0  0  0  0
  -15.9680  -13.1960   -3.3580 C   0  0  0  0  0  3  0  0  0  0  0  0
  -17.8630  -14.4900   -2.9410 C   0  0  0  0  0  2  0  0  0  0  0  0
  -17.6560  -15.2480   -4.1000 C   0  0  0  0  0  2  0  0  0  0  0  0
  -16.5140  -14.9030   -4.8640 C   0  0  0  0  0  2  0  0  0  0  0  0
  -15.1680  -12.1270   -3.0110 N   0  0  0  0  0  2  0  0  0  0  0  0
  -17.0680  -13.4670   -2.5350 N   0  0  0  0  0  2  0  0  0  0  0  0
  -15.6630  -13.8970   -4.5160 N   0  0  0  0  0  2  0  0  0  0  0  0
  1  6  1  0
  2  6  1  0
  2  7  1  0
  2  8  1  0
  3  4  1  0
  3  7  1  0
  4  5  1  0
  5  8  1  0
M  END
$$$$
