5qk4_A_K3D_303
     RDKit          3D

 14 14  0  0  0  0  0  0  0  0999 V2000
    4.0210    5.3560    4.1380 C   0  0  0  0  0  1  0  0  0  0  0  0
    2.8430    5.8180    3.2870 C   0  0  0  0  0  2  0  0  0  0  0  0
    0.3820    5.6350    3.4720 C   0  0  0  0  0  3  0  0  0  0  0  0
   -1.7260    4.3420    3.3090 C   0  0  0  0  0  2  0  0  0  0  0  0
   -2.7300    3.5420    4.0970 C   0  0  0  0  0  2  0  0  0  0  0  0
   -1.0780    2.7120    5.6680 C   0  0  0  0  0  2  0  0  0  0  0  0
   -0.0720    3.7750    5.1590 C   0  0  0  0  0  2  0  0  0  0  0  0
   -2.7250    1.0550    4.6350 C   0  0  0  0  0  3  0  0  0  0  0  0
   -3.8400    0.6410    3.6770 C   0  0  0  0  0  1  0  0  0  0  0  0
    1.6260    5.7240    4.0810 N   0  0  0  0  0  2  0  0  0  0  0  0
   -0.6190    4.8110    4.1960 N   0  0  0  0  0  0  0  0  0  0  0  0
   -2.0700    2.3290    4.5850 N   0  0  0  0  0  0  0  0  0  0  0  0
    0.1460    6.2240    2.4150 O   0  0  0  0  0  1  0  0  0  0  0  0
   -2.3870    0.2620    5.4830 O   0  0  0  0  0  1  0  0  0  0  0  0
  1  2  1  0
  2 10  1  0
  3 10  1  0
  3 11  1  0
  3 13  1  0
  4  5  1  0
  4 11  1  0
  5 12  1  0
  6  7  1  0
  6 12  1  0
  7 11  1  0
  8  9  1  0
  8 12  1  0
  8 14  1  0
M  END
$$$$
