5qk4_C_K3D_304
     RDKit          3D

 14 14  0  0  0  0  0  0  0  0999 V2000
  -24.0840   35.5200  -56.5230 C   0  0  0  0  0  1  0  0  0  0  0  0
  -23.7810   34.3590  -55.5860 C   0  0  0  0  0  2  0  0  0  0  0  0
  -23.3190   31.9120  -55.7830 C   0  0  0  0  0  3  0  0  0  0  0  0
  -22.2500   31.0290  -57.9330 C   0  0  0  0  0  2  0  0  0  0  0  0
  -21.9710   29.7810  -58.8080 C   0  0  0  0  0  2  0  0  0  0  0  0
  -22.7430   28.3110  -56.7850 C   0  0  0  0  0  2  0  0  0  0  0  0
  -22.5220   29.5680  -56.0000 C   0  0  0  0  0  2  0  0  0  0  0  0
  -22.6250   27.3570  -59.0540 C   0  0  0  0  0  3  0  0  0  0  0  0
  -23.2300   26.0400  -58.5700 C   0  0  0  0  0  1  0  0  0  0  0  0
  -23.2790   33.2170  -56.3540 N   0  0  0  0  0  2  0  0  0  0  0  0
  -23.0730   30.7590  -56.7020 N   0  0  0  0  0  0  0  0  0  0  0  0
  -22.2740   28.4080  -58.1980 N   0  0  0  0  0  0  0  0  0  0  0  0
  -23.5370   31.7420  -54.5690 O   0  0  0  0  0  1  0  0  0  0  0  0
  -22.4210   27.5260  -60.2400 O   0  0  0  0  0  1  0  0  0  0  0  0
  1  2  1  0
  2 10  1  0
  3 10  1  0
  3 11  1  0
  3 13  1  0
  4  5  1  0
  4 11  1  0
  5 12  1  0
  6  7  1  0
  6 12  1  0
  7 11  1  0
  8  9  1  0
  8 12  1  0
  8 14  1  0
M  END
$$$$
