5qk9_C_K3V_305
     RDKit          3D

 15 16  0  0  0  0  0  0  0  0999 V2000
  -31.9900    1.6570  -65.8520 C   0  0  0  0  0  1  0  0  0  0  0  0
  -30.5660    3.2040  -64.5830 C   0  0  0  0  0  3  0  0  0  0  0  0
  -29.3250    2.6910  -65.0580 C   0  0  0  0  0  2  0  0  0  0  0  0
  -28.1900    3.4940  -65.0780 C   0  0  0  0  0  2  0  0  0  0  0  0
  -28.2500    4.7980  -64.5900 C   0  0  0  0  0  3  0  0  0  0  0  0
  -27.0460    5.5970  -64.5310 C   0  0  0  0  0  2  0  0  0  0  0  0
  -29.4060    6.7150  -63.4600 C   0  0  0  0  0  3  0  0  0  0  0  0
  -29.4610    5.3530  -64.0640 C   0  0  0  0  0  3  0  0  0  0  0  0
  -30.6540    4.5540  -64.0840 C   0  0  0  0  0  3  0  0  0  0  0  0
  -32.7960    4.3820  -62.9290 C   0  0  0  0  0  1  0  0  0  0  0  0
  -26.9750    6.8000  -63.9890 N   0  0  0  0  0  2  0  0  0  0  0  0
  -28.1020    7.3370  -63.4810 N   0  0  0  0  0  2  0  0  0  0  0  0
  -31.6940    2.3820  -64.6300 O   0  0  0  0  0  0  0  0  0  0  0  0
  -30.3060    7.3440  -62.9280 O   0  0  0  0  0  1  0  0  0  0  0  0
  -31.8710    5.1390  -63.6980 O   0  0  0  0  0  0  0  0  0  0  0  0
  1 13  1  0
  2  3  1  0
  2  9  1  0
  2 13  1  0
  3  4  1  0
  4  5  1  0
  5  6  1  0
  5  8  1  0
  6 11  1  0
  7  8  1  0
  7 12  1  0
  7 14  1  0
  8  9  1  0
  9 15  1  0
 10 15  1  0
 11 12  1  0
M  END
$$$$
