5qtl_C_PW7_305
     RDKit          3D

 11 11  0  0  0  0  0  0  0  0999 V2000
  -22.6060   28.5130  -55.4350 C   0  0  0  0  0  0  0  0  0  0  0  0
  -22.7300   28.0430  -56.9000 C   0  0  0  0  0  3  0  0  0  0  0  0
  -23.2730   26.3920  -58.4360 C   0  0  0  0  0  3  0  0  0  0  0  0
  -22.4100   28.3850  -59.2130 C   0  0  0  0  0  2  0  0  0  0  0  0
  -22.3220   28.8990  -57.9080 C   0  0  0  0  0  2  0  0  0  0  0  0
  -22.0080   27.6470  -54.6230 F   0  0  0  0  0  0  0  0  0  0  0  0
  -23.7950   28.7670  -54.8600 F   0  0  0  0  0  0  0  0  0  0  0  0
  -21.9080   29.6690  -55.3080 F   0  0  0  0  0  0  0  0  0  0  0  0
  -23.2110   26.7890  -57.0910 N   0  0  0  0  0  2  0  0  0  0  0  0
  -23.8190   25.1740  -58.7170 N   0  0  0  0  0  1  0  0  0  0  0  0
  -22.8650   27.1640  -59.5180 N   0  0  0  0  0  2  0  0  0  0  0  0
  1  2  1  0
  1  6  1  0
  1  7  1  0
  1  8  1  0
  2  5  1  0
  2  9  1  0
  3  9  1  0
  3 10  1  0
  3 11  1  0
  4  5  1  0
  4 11  1  0
M  END
$$$$
