5qtl_D_PW7_501
     RDKit          3D

 11 11  0  0  0  0  0  0  0  0999 V2000
  -31.3130    5.6580  -63.6080 C   0  0  0  0  0  0  0  0  0  0  0  0
  -29.8190    5.9520  -63.7750 C   0  0  0  0  0  3  0  0  0  0  0  0
  -28.0580    7.4250  -63.4390 C   0  0  0  0  0  3  0  0  0  0  0  0
  -27.6290    5.3980  -64.5130 C   0  0  0  0  0  2  0  0  0  0  0  0
  -28.9900    5.0130  -64.4030 C   0  0  0  0  0  2  0  0  0  0  0  0
  -32.1030    6.6070  -64.0870 F   0  0  0  0  0  0  0  0  0  0  0  0
  -31.6420    5.5580  -62.3170 F   0  0  0  0  0  0  0  0  0  0  0  0
  -31.7370    4.4960  -64.1770 F   0  0  0  0  0  0  0  0  0  0  0  0
  -29.4270    7.1500  -63.2810 N   0  0  0  0  0  2  0  0  0  0  0  0
  -27.5840    8.6140  -62.9220 N   0  0  0  0  0  1  0  0  0  0  0  0
  -27.1310    6.5740  -64.0550 N   0  0  0  0  0  2  0  0  0  0  0  0
  1  2  1  0
  1  6  1  0
  1  7  1  0
  1  8  1  0
  2  5  1  0
  2  9  1  0
  3  9  1  0
  3 10  1  0
  3 11  1  0
  4  5  1  0
  4 11  1  0
M  END
$$$$
