5qtm_A_PWA_304
     RDKit          3D

 12 13  0  0  0  0  0  0  0  0999 V2000
   -3.3400    5.0110    2.8800 C   0  0  0  0  0  3  0  0  0  0  0  0
   -2.4990    4.6070    3.9850 C   0  0  0  0  0  2  0  0  0  0  0  0
   -2.4340    3.2600    4.3300 C   0  0  0  0  0  2  0  0  0  0  0  0
   -4.0860    4.0700    2.1750 C   0  0  0  0  0  2  0  0  0  0  0  0
   -3.9870    2.7140    2.5390 C   0  0  0  0  0  3  0  0  0  0  0  0
   -4.6460    0.5400    2.1180 C   0  0  0  0  0  2  0  0  0  0  0  0
   -3.1710    2.3130    3.6110 C   0  0  0  0  0  3  0  0  0  0  0  0
   -3.0950    0.9090    3.9750 C   0  0  0  0  0  3  0  0  0  0  0  0
   -3.4240    6.3050    2.4710 F   0  0  0  0  0  0  0  0  0  0  0  0
   -4.7330    1.8420    1.7730 N   0  0  0  0  0  2  0  0  0  0  0  0
   -3.8740    0.0280    3.1730 N   0  0  0  0  0  2  0  0  0  0  0  0
   -2.4340    0.4500    4.9040 O   0  0  0  0  0  1  0  0  0  0  0  0
  1  2  1  0
  1  4  1  0
  1  9  1  0
  2  3  1  0
  3  7  1  0
  4  5  1  0
  5  7  1  0
  5 10  1  0
  6 10  1  0
  6 11  1  0
  7  8  1  0
  8 11  1  0
  8 12  1  0
M  END
$$$$
