5qto_A_PWG_304
     RDKit          3D

 16 17  0  0  0  0  0  0  0  0999 V2000
   -0.6300    4.3070    5.8840 C   0  0  0  0  0  0  0  0  0  0  0  0
   -1.7570    4.0170    4.8780 C   0  0  0  0  0  3  0  0  0  0  0  0
   -2.3270    4.9830    4.0920 C   0  0  0  0  0  2  0  0  0  0  0  0
   -3.3780    4.6530    3.1660 C   0  0  0  0  0  2  0  0  0  0  0  0
   -3.8470    3.3740    3.0420 C   0  0  0  0  0  2  0  0  0  0  0  0
   -2.2300    2.6810    4.7640 C   0  0  0  0  0  3  0  0  0  0  0  0
   -3.5010    1.0440    3.9730 C   0  0  0  0  0  3  0  0  0  0  0  0
   -4.4960    0.2210    3.2400 C   0  0  0  0  0  3  0  0  0  0  0  0
   -0.4270    5.6100    6.0250 F   0  0  0  0  0  0  0  0  0  0  0  0
    0.5780    3.8310    5.5780 F   0  0  0  0  0  0  0  0  0  0  0  0
   -4.3420    0.4130    1.9430 F   0  0  0  0  0  0  0  0  0  0  0  0
   -5.7160    0.7010    3.4220 F   0  0  0  0  0  0  0  0  0  0  0  0
   -0.8210    3.8180    7.1050 F   0  0  0  0  0  0  0  0  0  0  0  0
   -3.2790    2.3910    3.8400 N   0  0  0  0  0  0  0  0  0  0  0  0
   -1.8820    1.5050    5.3900 N   0  0  0  0  0  2  0  0  0  0  0  0
   -2.6450    0.5360    4.9100 N   0  0  0  0  0  2  0  0  0  0  0  0
  1  2  1  0
  1  9  1  0
  1 10  1  0
  1 13  1  0
  2  3  1  0
  2  6  1  0
  3  4  1  0
  4  5  1  0
  5 14  1  0
  6 14  1  0
  6 15  1  0
  7  8  1  0
  7 14  1  0
  7 16  1  0
  8 11  1  0
  8 12  1  0
 15 16  1  0
M  END
$$$$
