5qto_B_PWG_304
     RDKit          3D

 16 17  0  0  0  0  0  0  0  0999 V2000
  -19.2730  -17.0190   -4.5780 C   0  0  0  0  0  0  0  0  0  0  0  0
  -18.0900  -16.1360   -4.9960 C   0  0  0  0  0  3  0  0  0  0  0  0
  -17.3910  -16.2980   -6.1560 C   0  0  0  0  0  2  0  0  0  0  0  0
  -16.2720  -15.4580   -6.4560 C   0  0  0  0  0  2  0  0  0  0  0  0
  -15.8690  -14.4770   -5.5980 C   0  0  0  0  0  2  0  0  0  0  0  0
  -17.6990  -15.1140   -4.0870 C   0  0  0  0  0  3  0  0  0  0  0  0
  -16.4860  -13.4330   -3.3630 C   0  0  0  0  0  3  0  0  0  0  0  0
  -15.5230  -12.3290   -3.2490 C   0  0  0  0  0  3  0  0  0  0  0  0
  -20.4040  -16.3530   -4.4500 F   0  0  0  0  0  0  0  0  0  0  0  0
  -19.1290  -17.6190   -3.3760 F   0  0  0  0  0  0  0  0  0  0  0  0
  -15.5950  -11.6990   -4.4290 F   0  0  0  0  0  0  0  0  0  0  0  0
  -14.2570  -12.7620   -3.2430 F   0  0  0  0  0  0  0  0  0  0  0  0
  -19.5240  -18.0250   -5.4330 F   0  0  0  0  0  0  0  0  0  0  0  0
  -16.5910  -14.3090   -4.4190 N   0  0  0  0  0  0  0  0  0  0  0  0
  -18.1980  -14.6980   -2.8660 N   0  0  0  0  0  2  0  0  0  0  0  0
  -17.4680  -13.7020   -2.4460 N   0  0  0  0  0  2  0  0  0  0  0  0
  1  2  1  0
  1  9  1  0
  1 10  1  0
  1 13  1  0
  2  3  1  0
  2  6  1  0
  3  4  1  0
  4  5  1  0
  5 14  1  0
  6 14  1  0
  6 15  1  0
  7  8  1  0
  7 14  1  0
  7 16  1  0
  8 11  1  0
  8 12  1  0
 15 16  1  0
M  END
$$$$
