1ax9_A_EDR_999
     RDKit          3D

 12 12  0  0  0  0  0  0  0  0999 V2000
    3.4050   66.7340   64.2890 C   0  0  0  0  0  2  0  0  0  0  0  0
    6.4990   68.7780   64.8590 C   0  0  0  0  0  1  0  0  0  0  0  0
    4.3300   67.2790   63.4170 C   0  0  0  0  0  3  0  0  0  0  0  0
    5.1850   66.3830   62.7860 C   0  0  0  0  0  2  0  0  0  0  0  0
    5.1290   65.0050   62.9870 C   0  0  0  0  0  3  0  0  0  0  0  0
    4.1920   64.4850   63.8680 C   0  0  0  0  0  2  0  0  0  0  0  0
    3.3270   65.3540   64.5140 C   0  0  0  0  0  2  0  0  0  0  0  0
    5.2730   69.0150   61.8320 C   0  0  0  0  0  1  0  0  0  0  0  0
    3.0320   69.2890   62.9100 C   0  0  0  0  0  1  0  0  0  0  0  0
    5.1620   69.4040   64.3260 C   0  0  0  0  0  2  0  0  0  0  0  0
    4.4660   68.7310   63.1190 N   0  0  0  0  0  4  0  0  0  0  0  0
    5.9810   64.1490   62.3510 O   0  0  0  0  0  1  0  0  0  0  0  0
  1  3  1  0
  1  7  1  0
  2 10  1  0
  3  4  1  0
  3 11  1  0
  4  5  1  0
  5  6  1  0
  5 12  1  0
  6  7  1  0
  8 11  1  0
  9 11  1  0
 10 11  1  0
M  END
$$$$
