1gqr_A_EMM_1999
     RDKit          3D

  6  5  0  0  0  0  0  0  0  0999 V2000
    5.7790   63.8380   60.9130 C   0  0  0  0  0  2  0  0  0  0  0  0
    7.5700   62.3230   61.7950 C   0  0  0  0  0  2  0  0  0  0  0  0
    5.3150   62.0710   62.8470 C   0  0  0  0  0  1  0  0  0  0  0  0
    8.5970   63.1550   62.0720 C   0  0  0  0  0  1  0  0  0  0  0  0
    6.2490   62.8250   61.9540 N   0  0  0  0  0  0  0  0  0  0  0  0
    4.7220   63.4430   60.3910 O   0  0  0  0  0  1  0  0  0  0  0  0
  1  5  1  0
  1  6  1  0
  2  4  1  0
  2  5  1  0
  3  5  1  0
M  END
$$$$
