1h23_A_E12_1536
     RDKit          3D

 36 39  0  0  0  0  0  0  0  0999 V2000
    4.5220   59.6020   71.6660 C   0  0  0  0  0  3  0  0  0  0  0  0
    1.4770   59.2970   74.8870 C   0  0  0  0  0  3  0  0  0  0  0  0
    0.7840   57.9110   74.9890 C   0  0  0  0  0  2  0  0  0  0  0  0
    0.6330   57.1930   73.6090 C   0  0  0  0  0  2  0  0  0  0  0  0
   -0.4130   60.5350   73.4890 C   0  0  0  0  0  2  0  0  0  0  0  0
    1.0830   68.6220   60.9810 C   0  0  0  0  0  3  0  0  0  0  0  0
    2.7510   58.3750   72.8710 C   0  0  0  0  0  3  0  0  0  0  0  0
    3.2580   68.5600   62.1370 C   0  0  0  0  0  3  0  0  0  0  0  0
    2.6510   68.5270   63.3920 C   0  0  0  0  0  3  0  0  0  0  0  0
    1.1680   68.5310   63.4560 C   0  0  0  0  0  2  0  0  0  0  0  0
    0.3990   68.5670   62.3320 C   0  0  0  0  0  2  0  0  0  0  0  0
    4.7870   68.5540   61.9260 C   0  0  0  0  0  2  0  0  0  0  0  0
    3.5080   68.5300   64.6550 C   0  0  0  0  0  3  0  0  0  0  0  0
    5.0070   68.2500   64.4180 C   0  0  0  0  0  2  0  0  0  0  0  0
    5.5200   69.0220   63.1970 C   0  0  0  0  0  2  0  0  0  0  0  0
    2.5050   59.4210   73.7420 C   0  0  0  0  0  3  0  0  0  0  0  0
    3.1900   66.1310   65.5760 C   0  0  0  0  0  2  0  0  0  0  0  0
    3.3450   60.6450   73.5970 C   0  0  0  0  0  2  0  0  0  0  0  0
    4.3040   60.7580   72.6160 C   0  0  0  0  0  2  0  0  0  0  0  0
   -0.7010   62.0450   73.3950 C   0  0  0  0  0  2  0  0  0  0  0  0
   -0.4650   62.5560   71.9940 C   0  0  0  0  0  2  0  0  0  0  0  0
    1.0260   62.5860   71.6890 C   0  0  0  0  0  2  0  0  0  0  0  0
    1.2970   62.4980   70.2080 C   0  0  0  0  0  2  0  0  0  0  0  0
    2.7810   62.5820   69.9290 C   0  0  0  0  0  2  0  0  0  0  0  0
    3.3450   63.9720   70.1360 C   0  0  0  0  0  2  0  0  0  0  0  0
    4.6020   64.2420   69.3260 C   0  0  0  0  0  2  0  0  0  0  0  0
    4.8080   65.7340   69.1310 C   0  0  0  0  0  2  0  0  0  0  0  0
    3.9550   66.3340   68.0170 C   0  0  0  0  0  2  0  0  0  0  0  0
    4.1820   65.6650   66.6480 C   0  0  0  0  0  2  0  0  0  0  0  0
    2.0050   57.0360   72.9280 C   0  0  0  0  0  2  0  0  0  0  0  0
    0.4280   60.3760   74.7650 N   0  0  0  0  0  2  0  0  0  0  0  0
    3.7000   58.5110   71.8970 N   0  0  0  0  0  2  0  0  0  0  0  0
    2.4730   68.5940   61.0220 N   0  0  0  0  0  2  0  0  0  0  0  0
    3.0380   67.5970   65.7540 N   0  0  0  0  0  2  0  0  0  0  0  0
    0.4940   68.7720   59.9020 O   0  0  0  0  0  1  0  0  0  0  0  0
    5.3310   59.6040   70.7170 O   0  0  0  0  0  1  0  0  0  0  0  0
  1 19  1  0
  1 32  1  0
  1 36  1  0
  2  3  1  0
  2 16  1  0
  2 31  1  0
  3  4  1  0
  4 30  1  0
  5 20  1  0
  5 31  1  0
  6 11  1  0
  6 33  1  0
  6 35  1  0
  7 16  1  0
  7 30  1  0
  7 32  1  0
  8  9  1  0
  8 12  1  0
  8 33  1  0
  9 10  1  0
  9 13  1  0
 10 11  1  0
 12 15  1  0
 13 14  1  0
 13 34  1  0
 14 15  1  0
 16 18  1  0
 17 29  1  0
 17 34  1  0
 18 19  1  0
 20 21  1  0
 21 22  1  0
 22 23  1  0
 23 24  1  0
 24 25  1  0
 25 26  1  0
 26 27  1  0
 27 28  1  0
 28 29  1  0
M  END
$$$$
