1vot_A_HUP_999
     RDKit          3D

 18 20  0  0  0  0  0  0  0  0999 V2000
    1.0960   69.1690   60.6670 C   0  0  0  0  0  3  0  0  0  0  0  0
    5.0720   69.3510   64.8500 C   0  0  0  0  0  2  0  0  0  0  0  0
    4.5400   68.3110   64.2660 C   0  0  0  0  0  3  0  0  0  0  0  0
    3.0810   67.9710   64.4350 C   0  0  0  0  0  0  0  0  0  0  0  0
    2.9410   66.4850   64.7410 C   0  0  0  0  0  2  0  0  0  0  0  0
    3.8190   65.6040   63.9290 C   0  0  0  0  0  3  0  0  0  0  0  0
    3.5550   64.1250   64.1060 C   0  0  0  0  0  1  0  0  0  0  0  0
    0.3550   69.0160   61.8850 C   0  0  0  0  0  2  0  0  0  0  0  0
    0.9710   68.6140   63.0250 C   0  0  0  0  0  2  0  0  0  0  0  0
    2.3680   68.3330   63.0880 C   0  0  0  0  0  3  0  0  0  0  0  0
    3.0880   68.4370   61.8980 C   0  0  0  0  0  3  0  0  0  0  0  0
    4.5590   68.2360   61.7940 C   0  0  0  0  0  2  0  0  0  0  0  0
    5.1250   67.5770   63.0860 C   0  0  0  0  0  3  0  0  0  0  0  0
    4.8110   66.0980   63.1810 C   0  0  0  0  0  2  0  0  0  0  0  0
    6.4780   69.8190   64.7220 C   0  0  0  0  0  1  0  0  0  0  0  0
    2.4300   68.8470   60.7360 N   0  0  0  0  0  2  0  0  0  0  0  0
    2.4610   68.7050   65.5570 N   0  0  0  0  0  1  0  0  0  0  0  0
    0.5910   69.5470   59.5810 O   0  0  0  0  0  1  0  0  0  0  0  0
  1  8  1  0
  1 16  1  0
  1 18  1  0
  2  3  1  0
  2 15  1  0
  3  4  1  0
  3 13  1  0
  4  5  1  0
  4 10  1  0
  4 17  1  0
  5  6  1  0
  6  7  1  0
  6 14  1  0
  8  9  1  0
  9 10  1  0
 10 11  1  0
 11 12  1  0
 11 16  1  0
 12 13  1  0
 13 14  1  0
M  END
$$$$
