2c4h_A_AT3_1540
     RDKit          3D

 10  9  0  0  0  0  0  0  0  0999 V2000
    5.9990   67.6880   60.5530 C   0  0  0  0  0  1  0  0  0  0  0  0
    4.3080   68.7990   61.9090 C   0  0  0  0  0  2  0  0  0  0  0  0
    5.4150   69.4900   62.7070 C   0  0  0  0  0  2  0  0  0  0  0  0
    6.8550   69.6630   65.0920 C   0  0  0  0  0  3  0  0  0  0  0  0
    7.8930   68.5820   65.3860 C   0  0  0  0  0  1  0  0  0  0  0  0
    4.8610   69.6420   59.7180 C   0  0  0  0  0  1  0  0  0  0  0  0
    3.7060   67.5640   59.9610 C   0  0  0  0  0  1  0  0  0  0  0  0
    4.7350   68.4320   60.5460 N   0  0  0  0  0  4  0  0  0  0  0  0
    7.1800   71.0410   65.3010 O   0  0  0  0  0  1  0  0  0  0  0  0
    5.2620   69.2100   64.4890 S   0  0  0  0  0  0  0  0  0  0  0  0
  1  8  1  0
  2  3  1  0
  2  8  1  0
  3 10  1  0
  4  5  1  0
  4  9  1  0
  4 10  1  0
  6  8  1  0
  7  8  1  0
M  END
$$$$
