2c5g_A_ETM_1536
     RDKit          3D

  7  6  0  0  0  0  0  0  0  0999 V2000
    3.9860   68.3870   63.3770 C   0  0  0  0  0  2  0  0  0  0  0  0
    4.8380   69.4200   64.1200 C   0  0  0  0  0  2  0  0  0  0  0  0
    5.6720   67.8750   65.7910 C   0  0  0  0  0  1  0  0  0  0  0  0
    5.7210   70.2270   66.1840 C   0  0  0  0  0  1  0  0  0  0  0  0
    3.6310   69.0730   66.1980 C   0  0  0  0  0  1  0  0  0  0  0  0
    4.9550   69.1380   65.5610 N   0  0  0  0  0  4  0  0  0  0  0  0
    4.0400   68.5920   61.5590 S   0  0  0  0  0  1  0  0  0  0  0  0
  1  2  1  0
  1  7  1  0
  2  6  1  0
  3  6  1  0
  4  6  1  0
  5  6  1  0
M  END
$$$$
