2v97_A_CFQ_1538
     RDKit          3D

 42 89  0  0  0  0  0  0  0  0999 V2000
   90.1090   47.1270   20.5470 As  0  0  0  0  0  8  0  0  0  0  0  0
   90.4790   46.9400   20.7010 As  0  0  0  0  0  9  0  0  0  0  0  0
   90.7560   47.7130   18.6160 C   0  0  0  0  0  3  0  0  0  0  0  0
   90.7770   48.1400   18.6600 C   0  0  0  0  0  3  0  0  0  0  0  0
   97.3150   49.1920   23.6340 C   0  0  0  0  0  0  0  0  0  0  0  0
   98.0670   49.7960   20.7530 C   0  0  0  0  0  2  0  0  0  0  0  0
   96.3560   49.2200   24.6170 C   0  0  0  0  0  2  0  0  0  0  0  0
   97.8080   49.8640   22.1320 C   0  0  0  0  0  0  0  0  0  0  0  0
   95.0380   49.2830   24.2650 C   0  0  0  0  0  2  0  0  0  0  0  0
   96.4860   49.8520   22.6160 C   0  0  0  0  0  5  0  0  0  0  0  0
   92.5130   50.7920   22.2080 C   0  0  0  0  0  8  0  0  0  0  0  0
   93.1250   51.0960   22.3760 C   0  0  0  0  0  8  0  0  0  0  0  0
   88.5100   45.6600   20.0850 C   0  0  0  0  0  3  0  0  0  0  0  0
   89.1140   45.1710   20.6600 C   0  0  0  0  0  3  0  0  0  0  0  0
   89.3040   48.7100   21.8840 C   0  0  0  0  0  3  0  0  0  0  0  0
   89.5290   48.5620   21.9190 C   0  0  0  0  0  3  0  0  0  0  0  0
   91.8490   46.0630   21.4190 C   0  0  0  0  0  0  0  0  0  0  0  0
   92.4560   46.3700   21.5720 C   0  0  0  0  0  0  0  0  0  0  0  0
   92.7040   47.0030   22.2590 C   0  0  0  0  0  0  0  0  0  0  0  0
   93.0110   47.4770   22.4950 C   0  0  0  0  0  0  0  0  0  0  0  0
   93.0630   49.4220   22.6750 C   0  0  0  0  0  6  0  0  0  0  0  0
   93.9380   49.7720   22.4050 C   0  0  0  0  0  6  0  0  0  0  0  0
   94.6220   49.3310   22.9170 C   0  0  0  0  0  5  0  0  0  0  0  0
   95.3710   49.7730   21.7280 C   0  0  0  0  0  6  0  0  0  0  0  0
   95.6340   49.2920   21.8740 C   0  0  0  0  0  6  0  0  0  0  0  0
   95.6360   49.6960   20.2750 C   0  0  0  0  0  7  0  0  0  0  0  0
   96.9710   49.2220   22.2760 C   0  0  0  0  0  0  0  0  0  0  0  0
   97.0070   49.7130   19.8390 C   0  0  0  0  0  0  0  0  0  0  0  0
   93.3280   51.7950   22.4880 F   0  0  0  0  0  4  0  0  0  0  0  0
   93.7190   52.0590   23.0750 F   0  0  0  0  0  2  0  0  0  0  0  0
   92.2950   50.8570   20.9060 F   0  0  0  0  0  3  0  0  0  0  0  0
   92.9500   51.5760   21.1500 F   0  0  0  0  0  4  0  0  0  0  0  0
   91.3650   51.0610   22.7980 F   0  0  0  0  0  2  0  0  0  0  0  0
   91.9120   50.9380   22.8980 F   0  0  0  0  0  3  0  0  0  0  0  0
   94.6070   49.5970   19.1270 N   0  0  0  0  0  5  0  0  0  0  0  0
   95.4210   49.3210   20.3710 N   0  0  0  0  0  7  0  0  0  0  0  0
   92.7090   48.3650   21.7320 O   0  0  0  0  0  4  0  0  0  0  0  0
   93.1790   48.7210   21.7640 O   0  0  0  0  0  4  0  0  0  0  0  0
   94.9480   49.5410   17.9430 O   0  0  0  0  0  1  0  0  0  0  0  0
   96.3600   49.3040   19.5700 O   0  0  0  0  0  3  0  0  0  0  0  0
   93.3990   49.5660   19.3220 O   0  0  0  0  0  0  0  0  0  0  0  0
   94.3070   49.3660   19.8820 O   0  0  0  0  0  4  0  0  0  0  0  0
  1  2  1  0
  1  3  1  0
  1  4  1  0
  1 13  1  0
  1 14  1  0
  1 15  1  0
  1 16  1  0
  1 17  1  0
  2  3  1  0
  2  4  1  0
  2 13  1  0
  2 14  1  0
  2 15  1  0
  2 16  1  0
  2 17  1  0
  2 18  1  0
  3  4  1  0
  5  7  1  0
  5  8  1  0
  5 10  1  0
  5 27  1  0
  6  8  1  0
  6 28  1  0
  7  9  1  0
  8 10  1  0
  8 27  1  0
  9 23  1  0
 10 24  1  0
 10 25  1  0
 10 27  1  0
 11 12  1  0
 11 21  1  0
 11 22  1  0
 11 29  1  0
 11 31  1  0
 11 32  1  0
 11 33  1  0
 11 34  1  0
 12 21  1  0
 12 22  1  0
 12 29  1  0
 12 30  1  0
 12 31  1  0
 12 32  1  0
 12 34  1  0
 13 14  1  0
 15 16  1  0
 17 18  1  0
 17 19  1  0
 18 19  1  0
 18 20  1  0
 19 20  1  0
 19 37  1  0
 20 37  1  0
 20 38  1  0
 21 22  1  0
 21 23  1  0
 21 37  1  0
 21 38  1  0
 22 23  1  0
 22 24  1  0
 22 38  1  0
 23 24  1  0
 23 25  1  0
 24 25  1  0
 24 26  1  0
 24 36  1  0
 25 26  1  0
 25 27  1  0
 25 36  1  0
 26 28  1  0
 26 35  1  0
 26 36  1  0
 26 40  1  0
 26 42  1  0
 28 36  1  0
 28 40  1  0
 29 30  1  0
 29 32  1  0
 31 32  1  0
 33 34  1  0
 35 36  1  0
 35 39  1  0
 35 41  1  0
 35 42  1  0
 36 40  1  0
 36 42  1  0
 37 38  1  0
 41 42  1  0
M  END
$$$$
