2v97_B_CFQ_1537
     RDKit          3D

 42100  0  0  0  0  0  0  0  0999 V2000
   92.1350   46.8580   82.1460 As  0  0  0  0  0  9  0  0  0  0  0  0
   92.3140   46.9530   82.2950 As  0  0  0  0  0  8  0  0  0  0  0  0
   91.0860   47.4520   84.0320 C   0  0  0  0  0  3  0  0  0  0  0  0
   91.5520   47.8330   84.1840 C   0  0  0  0  0  3  0  0  0  0  0  0
   84.4300   49.6180   80.6440 C   0  0  0  0  0  0  0  0  0  0  0  0
   85.1120   48.9670   79.2990 C   0  0  0  0  0  5  0  0  0  0  0  0
   85.0710   49.5100   79.3960 C   0  0  0  0  0  5  0  0  0  0  0  0
   86.1030   48.9690   78.3320 C   0  0  0  0  0  0  0  0  0  0  0  0
   86.4700   49.4020   79.3220 C   0  0  0  0  0  7  0  0  0  0  0  0
   87.4190   49.0330   78.7110 C   0  0  0  0  0  3  0  0  0  0  0  0
   89.6870   50.5660   80.3790 C   0  0  0  0  0  9  0  0  0  0  0  0
   89.8520   50.6260   80.6860 C   0  0  0  0  0  9  0  0  0  0  0  0
   93.4890   45.1340   82.5900 C   0  0  0  0  0  3  0  0  0  0  0  0
   93.8920   45.4850   82.8030 C   0  0  0  0  0  3  0  0  0  0  0  0
   93.1700   48.6140   81.0880 C   0  0  0  0  0  3  0  0  0  0  0  0
   93.3740   48.5870   81.4490 C   0  0  0  0  0  3  0  0  0  0  0  0
   90.6510   46.2980   80.5750 C   0  0  0  0  0  0  0  0  0  0  0  0
   90.6810   45.9710   81.1940 C   0  0  0  0  0  5  0  0  0  0  0  0
   89.2540   46.8790   80.8700 C   0  0  0  0  0  5  0  0  0  0  0  0
   89.4260   46.8260   81.2590 C   0  0  0  0  0  5  0  0  0  0  0  0
   88.8440   49.2670   80.2740 C   0  0  0  0  0  7  0  0  0  0  0  0
   89.3560   49.1940   80.3450 C   0  0  0  0  0  6  0  0  0  0  0  0
   87.2790   49.3940   80.5030 C   0  0  0  0  0  5  0  0  0  0  0  0
   87.8020   49.0980   80.0770 C   0  0  0  0  0  6  0  0  0  0  0  0
   86.6100   49.5150   81.8180 C   0  0  0  0  0  7  0  0  0  0  0  0
   86.7540   49.1020   81.1000 C   0  0  0  0  0  5  0  0  0  0  0  0
   85.1770   49.6220   81.8320 C   0  0  0  0  0  3  0  0  0  0  0  0
   85.4150   49.0300   80.6600 C   0  0  0  0  0  7  0  0  0  0  0  0
   89.8500   50.9770   81.6290 F   0  0  0  0  0  3  0  0  0  0  0  0
   90.0740   50.8030   81.9780 F   0  0  0  0  0  3  0  0  0  0  0  0
   90.9010   50.4000   79.8710 F   0  0  0  0  0  3  0  0  0  0  0  0
   90.9610   50.9120   80.0570 F   0  0  0  0  0  3  0  0  0  0  0  0
   89.0040   51.5700   80.3210 F   0  0  0  0  0  3  0  0  0  0  0  0
   89.1390   51.5810   79.7180 F   0  0  0  0  0  3  0  0  0  0  0  0
   86.9180   49.1960   82.6130 N   0  0  0  0  0  7  0  0  0  0  0  0
   87.2590   49.5430   83.2170 N   0  0  0  0  0  6  0  0  0  0  0  0
   89.3360   48.2890   81.2280 O   0  0  0  0  0  5  0  0  0  0  0  0
   89.7380   48.2510   81.4030 O   0  0  0  0  0  5  0  0  0  0  0  0
   85.9620   49.2250   83.3730 O   0  0  0  0  0  4  0  0  0  0  0  0
   86.5950   49.6560   84.2400 O   0  0  0  0  0  3  0  0  0  0  0  0
   88.0070   49.2710   83.1450 O   0  0  0  0  0  3  0  0  0  0  0  0
   88.4640   49.4640   83.3920 O   0  0  0  0  0  3  0  0  0  0  0  0
  1  2  1  0
  1  3  1  0
  1  4  1  0
  1 13  1  0
  1 14  1  0
  1 15  1  0
  1 16  1  0
  1 17  1  0
  1 18  1  0
  2  3  1  0
  2  4  1  0
  2 13  1  0
  2 14  1  0
  2 15  1  0
  2 16  1  0
  2 18  1  0
  3  4  1  0
  5  6  1  0
  5  7  1  0
  5 27  1  0
  5 28  1  0
  6  7  1  0
  6  8  1  0
  6  9  1  0
  6 28  1  0
  7  8  1  0
  7  9  1  0
  7 28  1  0
  8  9  1  0
  8 10  1  0
  9 10  1  0
  9 23  1  0
  9 24  1  0
  9 28  1  0
 10 24  1  0
 11 12  1  0
 11 21  1  0
 11 22  1  0
 11 29  1  0
 11 30  1  0
 11 31  1  0
 11 32  1  0
 11 33  1  0
 11 34  1  0
 12 21  1  0
 12 22  1  0
 12 29  1  0
 12 30  1  0
 12 31  1  0
 12 32  1  0
 12 33  1  0
 12 34  1  0
 13 14  1  0
 15 16  1  0
 17 18  1  0
 17 19  1  0
 17 20  1  0
 18 19  1  0
 18 20  1  0
 19 20  1  0
 19 37  1  0
 19 38  1  0
 20 37  1  0
 20 38  1  0
 21 22  1  0
 21 23  1  0
 21 24  1  0
 21 37  1  0
 21 38  1  0
 22 24  1  0
 22 37  1  0
 22 38  1  0
 23 24  1  0
 23 25  1  0
 23 26  1  0
 24 26  1  0
 25 26  1  0
 25 27  1  0
 25 28  1  0
 25 35  1  0
 25 36  1  0
 25 39  1  0
 26 28  1  0
 26 35  1  0
 27 28  1  0
 29 30  1  0
 31 32  1  0
 33 34  1  0
 35 36  1  0
 35 39  1  0
 35 40  1  0
 35 41  1  0
 35 42  1  0
 36 39  1  0
 36 40  1  0
 36 41  1  0
 36 42  1  0
 37 38  1  0
 39 40  1  0
 41 42  1  0
M  END
$$$$
