2v98_A_CFQ_1538
     RDKit          3D

 42 95  0  0  0  0  0  0  0  0999 V2000
   90.6480   47.0840   20.6850 As  0  0  0  0  0  6  0  0  0  0  0  0
   90.9510   46.2080   20.3570 As  0  0  0  0  0  8  0  0  0  0  0  0
   91.2990   47.7650   18.6590 C   0  0  0  0  0  3  0  0  0  0  0  0
   91.5470   47.0000   18.3420 C   0  0  0  0  0  2  0  0  0  0  0  0
   97.7850   49.4890   21.6500 C   0  0  0  0  0  0  0  0  0  0  0  0
   98.0570   49.2800   23.5510 C   0  0  0  0  0  3  0  0  0  0  0  0
   97.1550   49.3420   24.5970 C   0  0  0  0  0  0  0  0  0  0  0  0
   97.4410   49.4470   23.0160 C   0  0  0  0  0  6  0  0  0  0  0  0
   95.7870   49.3820   24.3200 C   0  0  0  0  0  3  0  0  0  0  0  0
   96.0810   49.4140   23.4040 C   0  0  0  0  0  6  0  0  0  0  0  0
   92.6990   50.6930   22.9920 C   0  0  0  0  0  8  0  0  0  0  0  0
   93.1280   50.7330   22.2750 C   0  0  0  0  0  7  0  0  0  0  0  0
   88.9800   45.6040   20.4510 C   0  0  0  0  0  3  0  0  0  0  0  0
   89.9410   44.2190   20.0650 C   0  0  0  0  0  2  0  0  0  0  0  0
   89.4850   47.6170   21.3070 C   0  0  0  0  0  3  0  0  0  0  0  0
   89.8170   48.8110   21.8310 C   0  0  0  0  0  2  0  0  0  0  0  0
   92.3290   46.0960   21.7660 C   0  0  0  0  0  5  0  0  0  0  0  0
   92.7590   45.9630   21.6640 C   0  0  0  0  0  0  0  0  0  0  0  0
   92.8120   47.0090   22.7940 C   0  0  0  0  0  5  0  0  0  0  0  0
   93.0010   47.0630   22.7240 C   0  0  0  0  0  5  0  0  0  0  0  0
   93.5330   49.3690   22.9990 C   0  0  0  0  0  7  0  0  0  0  0  0
   93.7280   49.3800   22.8160 C   0  0  0  0  0  7  0  0  0  0  0  0
   95.0250   49.4250   22.4340 C   0  0  0  0  0  6  0  0  0  0  0  0
   95.2980   49.3400   22.9760 C   0  0  0  0  0  6  0  0  0  0  0  0
   95.3920   49.4530   20.9960 C   0  0  0  0  0  6  0  0  0  0  0  0
   96.2790   49.2620   21.8650 C   0  0  0  0  0  9  0  0  0  0  0  0
   96.7900   49.5030   20.6600 C   0  0  0  0  0  5  0  0  0  0  0  0
   97.6490   49.2420   22.2230 C   0  0  0  0  0  0  0  0  0  0  0  0
   92.6350   51.2650   21.7930 F   0  0  0  0  0  5  0  0  0  0  0  0
   93.8270   51.2870   21.2720 F   0  0  0  0  0  2  0  0  0  0  0  0
   91.4360   50.4870   23.3800 F   0  0  0  0  0  2  0  0  0  0  0  0
   91.8900   50.5800   21.8240 F   0  0  0  0  0  4  0  0  0  0  0  0
   93.0860   51.6720   23.2320 F   0  0  0  0  0  4  0  0  0  0  0  0
   93.2040   51.6070   23.8210 F   0  0  0  0  0  2  0  0  0  0  0  0
   94.4370   49.5020   19.7740 N   0  0  0  0  0  5  0  0  0  0  0  0
   96.0230   49.2690   20.3330 N   0  0  0  0  0  6  0  0  0  0  0  0
   92.8430   48.3420   22.2440 O   0  0  0  0  0  5  0  0  0  0  0  0
   93.3530   48.2450   22.0160 O   0  0  0  0  0  5  0  0  0  0  0  0
   94.8740   49.5300   18.6210 O   0  0  0  0  0  0  0  0  0  0  0  0
   96.9550   49.2230   19.5270 O   0  0  0  0  0  0  0  0  0  0  0  0
   93.2150   49.4830   19.8840 O   0  0  0  0  0  0  0  0  0  0  0  0
   94.9000   49.2980   19.8470 O   0  0  0  0  0  5  0  0  0  0  0  0
  1  2  1  0
  1  3  1  0
  1 13  1  0
  1 15  1  0
  1 16  1  0
  1 17  1  0
  2  3  1  0
  2  4  1  0
  2 13  1  0
  2 14  1  0
  2 15  1  0
  2 17  1  0
  2 18  1  0
  3  4  1  0
  5  8  1  0
  5 26  1  0
  5 27  1  0
  5 28  1  0
  6  7  1  0
  6  8  1  0
  6 28  1  0
  7  8  1  0
  7  9  1  0
  7 10  1  0
  8 10  1  0
  8 26  1  0
  8 28  1  0
  9 10  1  0
  9 24  1  0
 10 23  1  0
 10 24  1  0
 10 26  1  0
 11 12  1  0
 11 21  1  0
 11 22  1  0
 11 29  1  0
 11 31  1  0
 11 32  1  0
 11 33  1  0
 11 34  1  0
 12 21  1  0
 12 22  1  0
 12 29  1  0
 12 30  1  0
 12 32  1  0
 12 33  1  0
 13 14  1  0
 15 16  1  0
 17 18  1  0
 17 19  1  0
 17 20  1  0
 18 19  1  0
 18 20  1  0
 19 20  1  0
 19 37  1  0
 19 38  1  0
 20 37  1  0
 20 38  1  0
 21 22  1  0
 21 23  1  0
 21 24  1  0
 21 37  1  0
 21 38  1  0
 22 23  1  0
 22 24  1  0
 22 37  1  0
 22 38  1  0
 23 24  1  0
 23 25  1  0
 23 26  1  0
 24 26  1  0
 25 26  1  0
 25 27  1  0
 25 35  1  0
 25 36  1  0
 25 42  1  0
 26 27  1  0
 26 28  1  0
 26 36  1  0
 27 36  1  0
 27 40  1  0
 29 30  1  0
 29 32  1  0
 29 33  1  0
 31 32  1  0
 33 34  1  0
 35 36  1  0
 35 39  1  0
 35 41  1  0
 35 42  1  0
 36 40  1  0
 36 42  1  0
 37 38  1  0
 39 42  1  0
 41 42  1  0
M  END
$$$$
