2vjb_A_CCD_1539
     RDKit          3D

 10  9  0  0  0  0  0  0  0  0999 V2000
   94.4530   49.0160   20.4650 C   0  0  0  0  0  1  0  0  0  0  0  0
   92.9870   50.4590   21.6180 C   0  0  0  0  0  2  0  0  0  0  0  0
   91.6350   51.0150   22.0910 C   0  0  0  0  0  2  0  0  0  0  0  0
   91.7670   52.1320   23.1310 C   0  0  0  0  0  2  0  0  0  0  0  0
   90.3990   52.7710   23.4130 C   0  0  0  0  0  3  0  0  0  0  0  0
   91.2400   53.6340   24.3610 C   0  0  0  0  0  1  0  0  0  0  0  0
   92.2330   48.2280   20.8130 C   0  0  0  0  0  1  0  0  0  0  0  0
   92.6970   49.9620   19.2130 C   0  0  0  0  0  1  0  0  0  0  0  0
   93.0400   49.4370   20.5470 N   0  0  0  0  0  4  0  0  0  0  0  0
   89.6920   53.3660   22.3200 O   0  0  0  0  0  1  0  0  0  0  0  0
  1  9  1  0
  2  3  1  0
  2  9  1  0
  3  4  1  0
  4  5  1  0
  5  6  1  0
  5 10  1  0
  7  9  1  0
  8  9  1  0
M  END
$$$$
