2vjb_A_CCD_1540
     RDKit          3D

 10  9  0  0  0  0  0  0  0  0999 V2000
  105.0360   57.9010   22.7870 C   0  0  0  0  0  1  0  0  0  0  0  0
  103.0360   56.5520   22.4100 C   0  0  0  0  0  2  0  0  0  0  0  0
  101.4970   56.3570   22.0600 C   0  0  0  0  0  2  0  0  0  0  0  0
  100.8110   55.3840   23.0340 C   0  0  0  0  0  2  0  0  0  0  0  0
  100.5190   53.9940   22.4150 C   0  0  0  0  0  3  0  0  0  0  0  0
   99.8720   52.9150   23.2930 C   0  0  0  0  0  1  0  0  0  0  0  0
  103.4710   58.7640   21.2280 C   0  0  0  0  0  1  0  0  0  0  0  0
  103.0120   58.7750   23.6290 C   0  0  0  0  0  1  0  0  0  0  0  0
  103.5930   57.9800   22.5020 N   0  0  0  0  0  4  0  0  0  0  0  0
  100.9320   53.6610   21.0560 O   0  0  0  0  0  1  0  0  0  0  0  0
  1  9  1  0
  2  3  1  0
  2  9  1  0
  3  4  1  0
  4  5  1  0
  5  6  1  0
  5 10  1  0
  7  9  1  0
  8  9  1  0
M  END
$$$$
