2vjc_B_CHH_1536
     RDKit          3D

 10  9  0  0  0  0  0  0  0  0999 V2000
   80.7290   57.8680   79.6980 C   0  0  0  0  0  1  0  0  0  0  0  0
   80.8760   55.8300   81.2230 C   0  0  0  0  0  2  0  0  0  0  0  0
   82.4410   55.7620   81.3990 C   0  0  0  0  0  2  0  0  0  0  0  0
   83.0820   55.2720   80.0990 C   0  0  0  0  0  2  0  0  0  0  0  0
   83.8470   53.9700   80.2800 C   0  0  0  0  0  3  0  0  0  0  0  0
   85.0200   53.6710   79.3470 C   0  0  0  0  0  1  0  0  0  0  0  0
   78.8060   56.9160   80.6360 C   0  0  0  0  0  1  0  0  0  0  0  0
   80.2600   58.1110   82.0530 C   0  0  0  0  0  1  0  0  0  0  0  0
   80.2190   57.1740   80.9120 N   0  0  0  0  0  4  0  0  0  0  0  0
   83.2500   52.8990   81.0040 O   0  0  0  0  0  1  0  0  0  0  0  0
  1  9  1  0
  2  3  1  0
  2  9  1  0
  3  4  1  0
  4  5  1  0
  5  6  1  0
  5 10  1  0
  7  9  1  0
  8  9  1  0
M  END
$$$$
