2vjd_B_CCD_1539
     RDKit          3D

 10  9  0  0  0  0  0  0  0  0999 V2000
   89.6380   47.6540   82.7680 C   0  0  0  0  0  1  0  0  0  0  0  0
   91.2130   49.3190   82.0240 C   0  0  0  0  0  2  0  0  0  0  0  0
   92.5700   49.8310   81.5020 C   0  0  0  0  0  2  0  0  0  0  0  0
   92.3670   50.8370   80.3620 C   0  0  0  0  0  2  0  0  0  0  0  0
   93.6140   51.6660   80.0170 C   0  0  0  0  0  3  0  0  0  0  0  0
   92.8500   52.6790   79.1580 C   0  0  0  0  0  1  0  0  0  0  0  0
   91.6910   46.8450   82.0310 C   0  0  0  0  0  1  0  0  0  0  0  0
   91.5450   48.1040   84.0890 C   0  0  0  0  0  1  0  0  0  0  0  0
   91.0690   48.0060   82.7000 N   0  0  0  0  0  4  0  0  0  0  0  0
   94.2740   52.3050   81.1110 O   0  0  0  0  0  1  0  0  0  0  0  0
  1  9  1  0
  2  3  1  0
  2  9  1  0
  3  4  1  0
  4  5  1  0
  5  6  1  0
  5 10  1  0
  7  9  1  0
  8  9  1  0
M  END
$$$$
