3zv7_A_NHG_1541
     RDKit          3D

 14 16  0  0  0  0  0  0  0  0999 V2000
    5.0610   68.6620   64.5660 C   0  0  0  0  0  2  0  0  0  0  0  0
    3.4270   67.9780   61.2940 C   0  0  0  0  0  1  0  0  0  0  0  0
    4.7380   64.0270   63.0470 C   0  0  0  0  0  3  0  0  0  0  0  0
    4.8490   65.3380   62.5980 C   0  0  0  0  0  2  0  0  0  0  0  0
    4.0400   66.3360   63.1300 C   0  0  0  0  0  3  0  0  0  0  0  0
    3.1100   66.0300   64.1210 C   0  0  0  0  0  3  0  0  0  0  0  0
    2.9960   64.7140   64.5560 C   0  0  0  0  0  2  0  0  0  0  0  0
    3.8030   63.7130   64.0270 C   0  0  0  0  0  2  0  0  0  0  0  0
    3.8840   67.8070   62.7450 C   0  0  0  0  0  0  0  0  0  0  0  0
    2.8880   68.3240   63.7850 C   0  0  0  0  0  3  0  0  0  0  0  0
    5.1690   68.5790   63.0450 C   0  0  0  0  0  2  0  0  0  0  0  0
    2.4050   67.1090   64.4600 N   0  0  0  0  0  2  0  0  0  0  0  0
    3.6820   69.1500   64.7100 N   0  0  0  0  0  2  0  0  0  0  0  0
    5.5700   63.0680   62.5570 O   0  0  0  0  0  1  0  0  0  0  0  0
  1 11  1  0
  1 13  1  0
  2  9  1  0
  3  4  1  0
  3  8  1  0
  3 14  1  0
  4  5  1  0
  5  6  1  0
  5  9  1  0
  6  7  1  0
  6 12  1  0
  7  8  1  0
  9 10  1  0
  9 11  1  0
 10 12  1  0
 10 13  1  0
M  END
$$$$
