4tvk_A_TJH_605
     RDKit          3D

 32 36  0  0  0  0  0  0  0  0999 V2000
  -51.5580   36.0270  -44.3910 C   0  0  0  0  0  2  0  0  0  0  0  0
  -51.6970   36.1370  -45.7670 C   0  0  0  0  0  2  0  0  0  0  0  0
  -50.9310   26.9680  -45.9950 C   0  0  0  0  0  2  0  0  0  0  0  0
  -52.1850   35.0210  -43.6230 C   0  0  0  0  0  2  0  0  0  0  0  0
  -51.9030   27.4320  -45.1060 C   0  0  0  0  0  2  0  0  0  0  0  0
  -54.5280   32.3110  -45.6360 C   0  0  0  0  0  2  0  0  0  0  0  0
  -49.3630   27.0880  -44.1640 C   0  0  0  0  0  2  0  0  0  0  0  0
  -51.4900   29.3010  -38.9810 C   0  0  0  0  0  2  0  0  0  0  0  0
  -52.8470   28.7300  -39.0800 C   0  0  0  0  0  2  0  0  0  0  0  0
  -55.5630   30.0390  -44.2960 C   0  0  0  0  0  2  0  0  0  0  0  0
  -54.3370   29.1350  -44.4780 C   0  0  0  0  0  2  0  0  0  0  0  0
  -50.4830   28.4580  -39.7230 C   0  0  0  0  0  2  0  0  0  0  0  0
  -53.2290   28.9300  -40.5340 C   0  0  0  0  0  2  0  0  0  0  0  0
  -49.6550   26.8040  -45.5230 C   0  0  0  0  0  3  0  0  0  0  0  0
  -52.4820   35.2000  -46.3840 C   0  0  0  0  0  3  0  0  0  0  0  0
  -50.9370   28.2580  -41.0960 C   0  0  0  0  0  3  0  0  0  0  0  0
  -54.4090   32.1960  -44.2200 C   0  0  0  0  0  3  0  0  0  0  0  0
  -52.2580   28.4690  -41.4930 C   0  0  0  0  0  3  0  0  0  0  0  0
  -52.5980   28.2330  -42.8440 C   0  0  0  0  0  3  0  0  0  0  0  0
  -53.8790   33.3180  -46.3530 C   0  0  0  0  0  3  0  0  0  0  0  0
  -53.6140   33.0990  -43.4560 C   0  0  0  0  0  3  0  0  0  0  0  0
  -50.3670   27.5620  -43.2830 C   0  0  0  0  0  3  0  0  0  0  0  0
  -51.6500   27.7440  -43.7490 C   0  0  0  0  0  3  0  0  0  0  0  0
  -52.9820   34.0950  -44.2310 C   0  0  0  0  0  3  0  0  0  0  0  0
  -53.1100   34.2050  -45.6400 C   0  0  0  0  0  3  0  0  0  0  0  0
  -48.4670   26.3330  -46.5610 Cl  0  0  0  0  0  0  0  0  0  0  0  0
  -50.0560   27.8170  -41.9810 N   0  0  0  0  0  2  0  0  0  0  0  0
  -55.0590   31.2140  -43.5860 N   0  0  0  0  0  2  0  0  0  0  0  0
  -53.8870   28.4400  -43.2350 N   0  0  0  0  0  2  0  0  0  0  0  0
  -53.9830   33.4340  -47.5790 O   0  0  0  0  0  1  0  0  0  0  0  0
  -53.4660   33.0230  -42.2130 O   0  0  0  0  0  1  0  0  0  0  0  0
  -52.6790   35.2000  -47.7320 O   0  0  0  0  0  1  0  0  0  0  0  0
  1  2  1  0
  1  4  1  0
  2 15  1  0
  3  5  1  0
  3 14  1  0
  4 24  1  0
  5 23  1  0
  6 17  1  0
  6 20  1  0
  7 14  1  0
  7 22  1  0
  8  9  1  0
  8 12  1  0
  9 13  1  0
 10 11  1  0
 10 28  1  0
 11 29  1  0
 12 16  1  0
 13 18  1  0
 14 26  1  0
 15 25  1  0
 15 32  1  0
 16 18  1  0
 16 27  1  0
 17 21  1  0
 17 28  1  0
 18 19  1  0
 19 23  1  0
 19 29  1  0
 20 25  1  0
 20 30  1  0
 21 24  1  0
 21 31  1  0
 22 23  1  0
 22 27  1  0
 24 25  1  0
M  END
$$$$
