4x3c_A_TNH_602
     RDKit          3D

 30 33  0  0  0  0  0  0  0  0999 V2000
   56.6200  154.7790  153.2520 C   0  0  0  0  0  2  0  0  0  0  0  0
   58.2960  154.2340  159.3080 C   0  0  0  0  0  2  0  0  0  0  0  0
   58.3120  155.3610  158.5110 C   0  0  0  0  0  2  0  0  0  0  0  0
   57.8960  155.2750  157.1890 C   0  0  0  0  0  3  0  0  0  0  0  0
   57.9130  156.3750  156.3470 C   0  0  0  0  0  3  0  0  0  0  0  0
   57.3020  158.3960  157.4420 C   0  0  0  0  0  2  0  0  0  0  0  0
   57.7910  159.6700  158.1540 C   0  0  0  0  0  2  0  0  0  0  0  0
   56.9300  159.9150  159.4310 C   0  0  0  0  0  2  0  0  0  0  0  0
   57.0460  161.3870  159.8830 C   0  0  0  0  0  2  0  0  0  0  0  0
   56.4000  161.6090  161.2660 C   0  0  0  0  0  2  0  0  0  0  0  0
   57.5080  162.0690  162.1900 C   0  0  0  0  0  2  0  0  0  0  0  0
   56.2620  156.0710  152.5580 C   0  0  0  0  0  2  0  0  0  0  0  0
   57.9010  162.8350  164.5080 C   0  0  0  0  0  3  0  0  0  0  0  0
   57.4250  162.9150  165.8730 C   0  0  0  0  0  3  0  0  0  0  0  0
   56.2620  163.6400  166.2430 C   0  0  0  0  0  2  0  0  0  0  0  0
   55.8060  163.7250  167.5520 C   0  0  0  0  0  2  0  0  0  0  0  0
   56.5470  163.0760  168.5370 C   0  0  0  0  0  2  0  0  0  0  0  0
   58.1320  162.2440  166.8840 C   0  0  0  0  0  2  0  0  0  0  0  0
   57.4140  157.1000  152.7460 C   0  0  0  0  0  2  0  0  0  0  0  0
   57.5270  157.4400  154.2130 C   0  0  0  0  0  2  0  0  0  0  0  0
   57.4760  156.2770  155.0430 C   0  0  0  0  0  3  0  0  0  0  0  0
   57.0380  155.0140  154.5880 C   0  0  0  0  0  3  0  0  0  0  0  0
   57.4380  154.0640  156.6690 C   0  0  0  0  0  3  0  0  0  0  0  0
   57.4380  152.9290  157.4780 C   0  0  0  0  0  2  0  0  0  0  0  0
   57.8590  153.0130  158.8000 C   0  0  0  0  0  2  0  0  0  0  0  0
   57.0240  153.9640  155.4020 N   0  0  0  0  0  2  0  0  0  0  0  0
   58.3090  157.5560  156.8010 N   0  0  0  0  0  2  0  0  0  0  0  0
   57.0600  162.2690  163.5790 N   0  0  0  0  0  2  0  0  0  0  0  0
   57.7010  162.3080  168.2060 N   0  0  0  0  0  2  0  0  0  0  0  0
   59.0250  163.2680  164.1810 O   0  0  0  0  0  1  0  0  0  0  0  0
  1 12  1  0
  1 22  1  0
  2  3  1  0
  2 25  1  0
  3  4  1  0
  4  5  1  0
  4 23  1  0
  5 21  1  0
  5 27  1  0
  6  7  1  0
  6 27  1  0
  7  8  1  0
  8  9  1  0
  9 10  1  0
 10 11  1  0
 11 28  1  0
 12 19  1  0
 13 14  1  0
 13 28  1  0
 13 30  1  0
 14 15  1  0
 14 18  1  0
 15 16  1  0
 16 17  1  0
 17 29  1  0
 18 29  1  0
 19 20  1  0
 20 21  1  0
 21 22  1  0
 22 26  1  0
 23 24  1  0
 23 26  1  0
 24 25  1  0
M  END
$$$$
