5e4t_A_MBT_612
     RDKit          3D

 20 22  0  0  0  0  0  0  0  0999 V2000
    1.6530   61.3830   71.3710 C   0  0  0  0  0  3  0  0  0  0  0  0
   -0.4360   59.0350   73.2690 C   0  0  0  0  0  2  0  0  0  0  0  0
    1.3590   63.7260   70.5710 C   0  0  0  0  0  2  0  0  0  0  0  0
    2.6480   63.6960   69.9960 C   0  0  0  0  0  3  0  0  0  0  0  0
    3.4010   62.5090   70.1210 C   0  0  0  0  0  2  0  0  0  0  0  0
    2.9140   61.3820   70.7910 C   0  0  0  0  0  2  0  0  0  0  0  0
   -4.9050   60.8620   74.5890 C   0  0  0  0  0  1  0  0  0  0  0  0
   -4.2510   58.5480   75.2140 C   0  0  0  0  0  1  0  0  0  0  0  0
    2.3900   66.0680   69.1720 C   0  0  0  0  0  1  0  0  0  0  0  0
    0.8430   62.6240   71.2540 C   0  0  0  0  0  3  0  0  0  0  0  0
    4.5070   64.8100   68.7200 C   0  0  0  0  0  1  0  0  0  0  0  0
   -0.9990   61.3180   72.6190 C   0  0  0  0  0  3  0  0  0  0  0  0
   -0.0330   60.1970   72.6220 C   0  0  0  0  0  3  0  0  0  0  0  0
   -2.2380   61.1470   73.2470 C   0  0  0  0  0  2  0  0  0  0  0  0
   -2.6170   59.9580   73.9030 C   0  0  0  0  0  3  0  0  0  0  0  0
   -1.6810   58.9100   73.8940 C   0  0  0  0  0  2  0  0  0  0  0  0
   -3.8900   59.8040   74.5480 N   0  0  0  0  0  0  0  0  0  0  0  0
    3.1690   64.8340   69.3080 N   0  0  0  0  0  0  0  0  0  0  0  0
    1.1890   60.2850   72.0230 N   0  0  0  0  0  2  0  0  0  0  0  0
   -0.6210   62.6880   71.8860 S   0  0  0  0  0  0  0  0  0  0  0  0
  1  6  1  0
  1 10  1  0
  1 19  1  0
  2 13  1  0
  2 16  1  0
  3  4  1  0
  3 10  1  0
  4  5  1  0
  4 18  1  0
  5  6  1  0
  7 17  1  0
  8 17  1  0
  9 18  1  0
 10 20  1  0
 11 18  1  0
 12 13  1  0
 12 14  1  0
 12 20  1  0
 13 19  1  0
 14 15  1  0
 15 16  1  0
 15 17  1  0
M  END
$$$$
