5ehx_A_AE4_604
     RDKit          3D

 18 17  0  0  0  0  0  0  0  0999 V2000
  -56.4090   36.9350  159.9120 C   0  0  0  0  0  2  0  0  0  0  0  0
  -56.5370   36.5040  158.4170 C   0  0  0  0  0  2  0  0  0  0  0  0
  -57.5400   38.2210  156.9810 C   0  0  0  0  0  2  0  0  0  0  0  0
  -57.2190   37.6820  155.5930 C   0  0  0  0  0  2  0  0  0  0  0  0
  -57.7210   38.6160  153.4140 C   0  0  0  0  0  2  0  0  0  0  0  0
  -57.3410   37.3190  152.6360 C   0  0  0  0  0  2  0  0  0  0  0  0
  -52.2310   29.5460  164.5370 C   0  0  0  0  0  1  0  0  0  0  0  0
  -53.5830   29.4550  163.7810 C   0  0  0  0  0  2  0  0  0  0  0  0
  -53.1490   30.8560  161.9110 C   0  0  0  0  0  2  0  0  0  0  0  0
  -52.8310   32.3090  161.4060 C   0  0  0  0  0  2  0  0  0  0  0  0
  -53.6090   34.5500  160.9020 C   0  0  0  0  0  2  0  0  0  0  0  0
  -55.0170   35.2370  160.8330 C   0  0  0  0  0  2  0  0  0  0  0  0
  -55.0570   36.5990  160.3040 O   0  0  0  0  0  0  0  0  0  0  0  0
  -57.7040   37.0430  157.7710 O   0  0  0  0  0  0  0  0  0  0  0  0
  -57.0580   38.7710  154.6580 O   0  0  0  0  0  0  0  0  0  0  0  0
  -56.0070   37.3530  152.1060 O   0  0  0  0  0  1  0  0  0  0  0  0
  -53.9070   30.7170  163.0920 O   0  0  0  0  0  0  0  0  0  0  0  0
  -53.8960   33.2620  161.5130 O   0  0  0  0  0  0  0  0  0  0  0  0
  1  2  1  0
  1 13  1  0
  2 14  1  0
  3  4  1  0
  3 14  1  0
  4 15  1  0
  5  6  1  0
  5 15  1  0
  6 16  1  0
  7  8  1  0
  8 17  1  0
  9 10  1  0
  9 17  1  0
 10 18  1  0
 11 12  1  0
 11 18  1  0
 12 13  1  0
M  END
$$$$
