5nap_A_DZ7_611
     RDKit          3D

 28 31  0  0  0  0  0  0  0  0999 V2000
  163.6510   32.5040  186.5190 C   0  0  0  0  0  1  0  0  0  0  0  0
  162.5790   27.3420  186.3880 C   0  0  0  0  0  1  0  0  0  0  0  0
  169.2800   28.5480  182.9430 C   0  0  0  0  0  2  0  0  0  0  0  0
  172.9510   30.3760  175.4230 C   0  0  0  0  0  2  0  0  0  0  0  0
  172.1920   31.4350  175.9260 C   0  0  0  0  0  2  0  0  0  0  0  0
  173.8060   29.6560  176.2800 C   0  0  0  0  0  2  0  0  0  0  0  0
  172.2730   31.7050  177.3020 C   0  0  0  0  0  2  0  0  0  0  0  0
  173.8900   29.9310  177.6460 C   0  0  0  0  0  2  0  0  0  0  0  0
  165.6400   30.9100  185.2170 C   0  0  0  0  0  2  0  0  0  0  0  0
  165.1080   28.2450  185.2680 C   0  0  0  0  0  2  0  0  0  0  0  0
  170.4940   30.7760  182.4070 C   0  0  0  0  0  2  0  0  0  0  0  0
  170.5700   28.8190  180.8560 C   0  0  0  0  0  2  0  0  0  0  0  0
  171.8230   31.1850  181.7310 C   0  0  0  0  0  2  0  0  0  0  0  0
  171.8650   29.2160  180.2700 C   0  0  0  0  0  2  0  0  0  0  0  0
  167.7090   30.1910  183.9360 C   0  0  0  0  0  2  0  0  0  0  0  0
  173.1110   31.2850  179.5820 C   0  0  0  0  0  2  0  0  0  0  0  0
  168.1240   28.8920  183.5930 C   0  0  0  0  0  3  0  0  0  0  0  0
  167.1890   28.0300  184.0320 C   0  0  0  0  0  3  0  0  0  0  0  0
  173.1090   30.9590  178.1690 C   0  0  0  0  0  3  0  0  0  0  0  0
  166.4990   30.0710  184.5980 C   0  0  0  0  0  3  0  0  0  0  0  0
  164.4660   30.4120  185.8730 C   0  0  0  0  0  3  0  0  0  0  0  0
  164.1810   29.0810  185.8780 C   0  0  0  0  0  3  0  0  0  0  0  0
  166.1980   28.7380  184.6740 C   0  0  0  0  0  3  0  0  0  0  0  0
  170.4850   29.3000  182.3290 C   0  0  0  0  0  3  0  0  0  0  0  0
  171.9240   30.7020  180.3100 N   0  0  0  0  0  0  0  0  0  0  0  0
  167.2470   26.8000  183.8860 O   0  0  0  0  0  1  0  0  0  0  0  0
  163.4770   31.0830  186.4780 O   0  0  0  0  0  0  0  0  0  0  0  0
  163.0100   28.7200  186.5230 O   0  0  0  0  0  0  0  0  0  0  0  0
  1 27  1  0
  2 28  1  0
  3 17  1  0
  3 24  1  0
  4  5  1  0
  4  6  1  0
  5  7  1  0
  6  8  1  0
  7 19  1  0
  8 19  1  0
  9 20  1  0
  9 21  1  0
 10 22  1  0
 10 23  1  0
 11 13  1  0
 11 24  1  0
 12 14  1  0
 12 24  1  0
 13 25  1  0
 14 25  1  0
 15 17  1  0
 15 20  1  0
 16 19  1  0
 16 25  1  0
 17 18  1  0
 18 23  1  0
 18 26  1  0
 20 23  1  0
 21 22  1  0
 21 27  1  0
 22 28  1  0
M  END
$$$$
