6fqn_A_E2W_601
     RDKit          3D

 30 33  0  0  0  0  0  0  0  0999 V2000
   49.0740  -29.0740   27.0510 C   0  0  0  0  0  2  0  0  0  0  0  0
   52.4120  -32.4960   28.5230 C   0  0  0  0  0  2  0  0  0  0  0  0
   55.3920  -30.8020   25.9750 C   0  0  0  0  0  2  0  0  0  0  0  0
   55.8600  -32.0690   25.2500 C   0  0  0  0  0  2  0  0  0  0  0  0
   54.8650  -32.6420   24.2270 C   0  0  0  0  0  2  0  0  0  0  0  0
   53.4400  -32.7160   24.6630 C   0  0  0  0  0  2  0  0  0  0  0  0
   54.4270  -28.0330   28.8490 C   0  0  0  0  0  2  0  0  0  0  0  0
   55.9510  -28.1790   29.1790 C   0  0  0  0  0  2  0  0  0  0  0  0
   56.2930  -28.7250   30.6000 C   0  0  0  0  0  2  0  0  0  0  0  0
   55.8780  -30.1270   30.9950 C   0  0  0  0  0  2  0  0  0  0  0  0
   54.3550  -30.3920   30.8590 C   0  0  0  0  0  3  0  0  0  0  0  0
   49.8890  -28.1310   27.7020 C   0  0  0  0  0  3  0  0  0  0  0  0
   53.4120  -29.7580   31.6930 C   0  0  0  0  0  2  0  0  0  0  0  0
   52.0470  -30.0360   31.4960 C   0  0  0  0  0  2  0  0  0  0  0  0
   51.6860  -30.9180   30.4840 C   0  0  0  0  0  3  0  0  0  0  0  0
   52.7030  -31.4900   29.6930 C   0  0  0  0  0  3  0  0  0  0  0  0
   51.2290  -28.2310   27.6580 C   0  0  0  0  0  2  0  0  0  0  0  0
   51.8520  -29.3380   26.9160 C   0  0  0  0  0  3  0  0  0  0  0  0
   51.0320  -30.2630   26.2660 C   0  0  0  0  0  3  0  0  0  0  0  0
   49.6660  -30.1500   26.3270 C   0  0  0  0  0  2  0  0  0  0  0  0
   53.2930  -29.4910   26.8570 C   0  0  0  0  0  3  0  0  0  0  0  0
   53.8010  -30.6260   26.0660 C   0  0  0  0  0  3  0  0  0  0  0  0
   52.9480  -31.4870   25.4610 C   0  0  0  0  0  3  0  0  0  0  0  0
   49.0920  -26.7930   28.5670 Cl  0  0  0  0  0  0  0  0  0  0  0  0
   51.5600  -31.3080   25.5620 N   0  0  0  0  0  2  0  0  0  0  0  0
   54.2740  -28.5750   27.4390 N   0  0  0  0  0  2  0  0  0  0  0  0
   53.9870  -31.2040   29.9060 N   0  0  0  0  0  2  0  0  0  0  0  0
   51.0440  -33.0190   28.4620 N   0  0  0  0  0  2  0  0  0  0  0  0
   50.9660  -33.8690   27.3140 O   0  0  0  0  0  1  0  0  0  0  0  0
   50.3220  -31.2310   30.2410 O   0  0  0  0  0  1  0  0  0  0  0  0
  1 12  1  0
  1 20  1  0
  2 16  1  0
  2 28  1  0
  3  4  1  0
  3 22  1  0
  4  5  1  0
  5  6  1  0
  6 23  1  0
  7  8  1  0
  7 26  1  0
  8  9  1  0
  9 10  1  0
 10 11  1  0
 11 13  1  0
 11 27  1  0
 12 17  1  0
 12 24  1  0
 13 14  1  0
 14 15  1  0
 15 16  1  0
 15 30  1  0
 16 27  1  0
 17 18  1  0
 18 19  1  0
 18 21  1  0
 19 20  1  0
 19 25  1  0
 21 22  1  0
 21 26  1  0
 22 23  1  0
 23 25  1  0
 28 29  1  0
M  END
$$$$
