6g1u_A_E1K_609
     RDKit          3D

 34 90  0  0  0  0  0  0  0  0999 V2000
    9.0420    2.6350   23.0850 C   0  0  0  0  0  5  0  0  0  0  0  0
   13.0600    9.3560   23.9590 C   0  0  0  0  0  5  0  0  0  0  0  0
    8.9790    3.0320   21.6250 C   0  0  0  0  0  5  0  0  0  0  0  0
   12.9700    9.3720   22.4440 C   0  0  0  0  0  5  0  0  0  0  0  0
   10.2170    3.8250   21.2890 C   0  0  0  0  0  0  0  0  0  0  0  0
   12.9220    7.9440   21.9270 C   0  0  0  0  0  0  0  0  0  0  0  0
   10.4490    4.8550   22.2110 C   0  0  0  0  0  6  0  0  0  0  0  0
   11.9820    7.1510   22.6110 C   0  0  0  0  0  7  0  0  0  0  0  0
   10.6810    5.1790   22.6330 C   0  0  0  0  0  6  0  0  0  0  0  0
   11.5930    6.8650   22.6850 C   0  0  0  0  0  6  0  0  0  0  0  0
   10.2880    4.0180   21.9820 C   0  0  0  0  0  5  0  0  0  0  0  0
   12.4770    7.8660   22.2900 C   0  0  0  0  0  5  0  0  0  0  0  0
    9.3810    3.1510   22.5730 C   0  0  0  0  0  7  0  0  0  0  0  0
   12.7610    8.9220   23.1550 C   0  0  0  0  0  7  0  0  0  0  0  0
    8.8500    3.4520   23.8280 C   0  0  0  0  0  0  0  0  0  0  0  0
   12.1750    8.9840   24.4170 C   0  0  0  0  0  5  0  0  0  0  0  0
    9.2340    4.6220   24.4890 C   0  0  0  0  0  6  0  0  0  0  0  0
   11.2990    7.9840   24.8160 C   0  0  0  0  0  5  0  0  0  0  0  0
   10.1540    5.4800   23.8810 C   0  0  0  0  0  6  0  0  0  0  0  0
   11.0140    6.9350   23.9490 C   0  0  0  0  0  7  0  0  0  0  0  0
   10.1460    5.9250   24.3200 C   0  0  0  0  0  7  0  0  0  0  0  0
   10.5760    6.6530   24.4860 C   0  0  0  0  0  7  0  0  0  0  0  0
    9.8500    4.8690   23.4750 C   0  0  0  0  0  6  0  0  0  0  0  0
   11.4930    7.5010   23.8820 C   0  0  0  0  0  7  0  0  0  0  0  0
    8.9500    3.8940   23.9210 C   0  0  0  0  0  5  0  0  0  0  0  0
   11.8450    8.6740   24.5570 C   0  0  0  0  0  5  0  0  0  0  0  0
   11.9350    5.7930   20.5140 C   0  0  0  0  0  3  0  0  0  0  0  0
   12.0810    5.6030   20.7000 C   0  0  0  0  0  3  0  0  0  0  0  0
    8.9280    1.6950   21.7100 Cl  0  0  0  0  0  3  0  0  0  0  0  0
   13.8350   10.1680   22.6670 Cl  0  0  0  0  0  3  0  0  0  0  0  0
   11.3030    5.8400   21.8560 N   0  0  0  0  0  7  0  0  0  0  0  0
   11.5670    5.9990   22.0340 N   0  0  0  0  0  7  0  0  0  0  0  0
    9.5730    5.9690   25.5210 N   0  0  0  0  0  4  0  0  0  0  0  0
   10.0890    6.9820   25.6850 N   0  0  0  0  0  0  0  0  0  0  0  0
  1  3  1  0
  1 13  1  0
  1 15  1  0
  1 25  1  0
  1 29  1  0
  2  4  1  0
  2 14  1  0
  2 16  1  0
  2 26  1  0
  2 30  1  0
  3  5  1  0
  3 11  1  0
  3 13  1  0
  3 29  1  0
  4  6  1  0
  4 12  1  0
  4 14  1  0
  4 30  1  0
  5  7  1  0
  5 11  1  0
  5 13  1  0
  6  8  1  0
  6 12  1  0
  6 14  1  0
  7  9  1  0
  7 11  1  0
  7 23  1  0
  7 31  1  0
  7 32  1  0
  8 10  1  0
  8 12  1  0
  8 20  1  0
  8 24  1  0
  8 31  1  0
  8 32  1  0
  9 11  1  0
  9 19  1  0
  9 23  1  0
  9 31  1  0
  9 32  1  0
 10 12  1  0
 10 20  1  0
 10 24  1  0
 10 31  1  0
 10 32  1  0
 11 13  1  0
 12 14  1  0
 13 15  1  0
 13 25  1  0
 13 29  1  0
 14 16  1  0
 14 26  1  0
 14 30  1  0
 15 17  1  0
 15 25  1  0
 16 18  1  0
 16 24  1  0
 16 26  1  0
 17 19  1  0
 17 21  1  0
 17 23  1  0
 17 25  1  0
 17 33  1  0
 18 20  1  0
 18 22  1  0
 18 24  1  0
 18 26  1  0
 19 20  1  0
 19 21  1  0
 19 22  1  0
 19 23  1  0
 20 21  1  0
 20 22  1  0
 20 24  1  0
 21 22  1  0
 21 23  1  0
 21 33  1  0
 21 34  1  0
 22 24  1  0
 22 33  1  0
 22 34  1  0
 23 25  1  0
 24 26  1  0
 27 28  1  0
 27 31  1  0
 27 32  1  0
 28 31  1  0
 28 32  1  0
 31 32  1  0
 33 34  1  0
M  END
$$$$
