6g1w_A_E0Z_604
     RDKit          3D

 37 41  0  0  0  0  0  0  0  0999 V2000
   -0.1670   -3.6480   56.1320 C   0  0  0  0  0  2  0  0  0  0  0  0
    0.4320   -4.3950   55.0930 C   0  0  0  0  0  2  0  0  0  0  0  0
   -0.3190   -5.2970   54.3380 C   0  0  0  0  0  2  0  0  0  0  0  0
   -1.7270   -5.4320   54.6070 C   0  0  0  0  0  3  0  0  0  0  0  0
   -3.8030   -6.5010   54.0490 C   0  0  0  0  0  3  0  0  0  0  0  0
   -4.5080   -7.4300   53.2430 C   0  0  0  0  0  2  0  0  0  0  0  0
   -5.8690   -7.6080   53.4470 C   0  0  0  0  0  3  0  0  0  0  0  0
   -6.5660   -6.8920   54.4370 C   0  0  0  0  0  2  0  0  0  0  0  0
   -5.8650   -5.9860   55.2340 C   0  0  0  0  0  2  0  0  0  0  0  0
   -4.4660   -5.8000   55.0160 C   0  0  0  0  0  3  0  0  0  0  0  0
   -3.7500   -4.8630   55.8290 C   0  0  0  0  0  3  0  0  0  0  0  0
   -2.3300   -4.6890   55.5990 C   0  0  0  0  0  3  0  0  0  0  0  0
   -1.5450   -3.7820   56.3850 C   0  0  0  0  0  2  0  0  0  0  0  0
   -4.7180   -2.7070   56.6510 C   0  0  0  0  0  2  0  0  0  0  0  0
   -6.1750   -2.2650   56.8540 C   0  0  0  0  0  2  0  0  0  0  0  0
   -5.6010   -1.0560   54.8600 C   0  0  0  0  0  2  0  0  0  0  0  0
   -6.2700   -0.6500   53.6550 C   0  0  0  0  0  3  0  0  0  0  0  0
   -5.5330    0.1430   52.5600 C   0  0  0  0  0  2  0  0  0  0  0  0
   -6.2380    0.2350   51.2150 C   0  0  0  0  0  3  0  0  0  0  0  0
   -6.5780    1.5770   49.0910 C   0  0  0  0  0  2  0  0  0  0  0  0
   -7.6100    2.7040   49.1090 C   0  0  0  0  0  3  0  0  0  0  0  0
   -7.1490    3.9840   48.9300 C   0  0  0  0  0  2  0  0  0  0  0  0
   -8.0430    5.0360   48.9530 C   0  0  0  0  0  3  0  0  0  0  0  0
   -9.4070    4.8400   49.1260 C   0  0  0  0  0  3  0  0  0  0  0  0
   -9.8780    3.5460   49.3080 C   0  0  0  0  0  2  0  0  0  0  0  0
   -8.9730    2.4870   49.3040 C   0  0  0  0  0  2  0  0  0  0  0  0
   -6.7720    6.1950   47.5720 C   0  0  0  0  0  1  0  0  0  0  0  0
   -6.7380   -8.7650   52.4210 Cl  0  0  0  0  0  0  0  0  0  0  0  0
   -2.4610   -6.3140   53.8690 N   0  0  0  0  0  2  0  0  0  0  0  0
   -6.5240   -1.6920   55.5730 N   0  0  0  0  0  0  0  0  0  0  0  0
   -7.6750   -1.7280   54.9020 N   0  0  0  0  0  2  0  0  0  0  0  0
   -7.5510   -1.0870   53.7400 N   0  0  0  0  0  2  0  0  0  0  0  0
   -5.9560    1.4130   50.3970 N   0  0  0  0  0  2  0  0  0  0  0  0
   -4.4950   -4.1300   56.8440 N   0  0  0  0  0  2  0  0  0  0  0  0
   -6.9770   -0.6290   50.8620 O   0  0  0  0  0  1  0  0  0  0  0  0
  -10.2820    5.9420   49.1240 O   0  0  0  0  0  1  0  0  0  0  0  0
   -7.5040    6.2950   48.7450 O   0  0  0  0  0  0  0  0  0  0  0  0
  1  2  1  0
  1 13  1  0
  2  3  1  0
  3  4  1  0
  4 12  1  0
  4 29  1  0
  5  6  1  0
  5 10  1  0
  5 29  1  0
  6  7  1  0
  7  8  1  0
  7 28  1  0
  8  9  1  0
  9 10  1  0
 10 11  1  0
 11 12  1  0
 11 34  1  0
 12 13  1  0
 14 15  1  0
 14 34  1  0
 15 30  1  0
 16 17  1  0
 16 30  1  0
 17 18  1  0
 17 32  1  0
 18 19  1  0
 19 33  1  0
 19 35  1  0
 20 21  1  0
 20 33  1  0
 21 22  1  0
 21 26  1  0
 22 23  1  0
 23 24  1  0
 23 37  1  0
 24 25  1  0
 24 36  1  0
 25 26  1  0
 27 37  1  0
 30 31  1  0
 31 32  1  0
M  END
$$$$
