6g4m_A_DQ5_601
     RDKit          3D

 29 32  0  0  0  0  0  0  0  0999 V2000
  -13.2750    5.5080   54.9320 C   0  0  0  0  0  2  0  0  0  0  0  0
  -14.0830    4.5660   55.8760 C   0  0  0  0  0  2  0  0  0  0  0  0
  -15.1700    3.7080   55.1390 C   0  0  0  0  0  2  0  0  0  0  0  0
  -14.5920    2.7800   54.0330 C   0  0  0  0  0  2  0  0  0  0  0  0
  -14.5240    3.5380   52.6860 C   0  0  0  0  0  3  0  0  0  0  0  0
  -15.2330    4.7240   52.5440 C   0  0  0  0  0  2  0  0  0  0  0  0
  -15.1860    5.4360   51.3710 C   0  0  0  0  0  2  0  0  0  0  0  0
  -14.4470    4.9710   50.3190 C   0  0  0  0  0  3  0  0  0  0  0  0
  -13.7220    3.7700   50.4530 C   0  0  0  0  0  3  0  0  0  0  0  0
  -12.9030    3.2190   49.2770 C   0  0  0  0  0  2  0  0  0  0  0  0
  -11.1620    4.7960   53.5380 C   0  0  0  0  0  3  0  0  0  0  0  0
  -11.0620    5.7210   52.4070 C   0  0  0  0  0  3  0  0  0  0  0  0
  -11.7300    7.0730   52.4030 C   0  0  0  0  0  2  0  0  0  0  0  0
  -11.6460    7.9060   51.1130 C   0  0  0  0  0  2  0  0  0  0  0  0
  -11.2500    7.1770   49.8400 C   0  0  0  0  0  2  0  0  0  0  0  0
  -10.1440    6.1630   50.0380 C   0  0  0  0  0  2  0  0  0  0  0  0
  -10.3360    5.3230   51.2920 C   0  0  0  0  0  3  0  0  0  0  0  0
   -9.7830    3.1860   52.3090 C   0  0  0  0  0  3  0  0  0  0  0  0
   -9.1360    1.9490   52.2180 C   0  0  0  0  0  2  0  0  0  0  0  0
   -9.1970    1.0410   53.2610 C   0  0  0  0  0  2  0  0  0  0  0  0
   -9.8940    1.3730   54.4020 C   0  0  0  0  0  2  0  0  0  0  0  0
  -10.5420    2.6110   54.4940 C   0  0  0  0  0  2  0  0  0  0  0  0
  -10.4920    3.5270   53.4490 C   0  0  0  0  0  3  0  0  0  0  0  0
  -11.8790    5.0980   54.7900 N   0  0  0  0  0  2  0  0  0  0  0  0
  -11.5830    3.2330   49.2370 N   0  0  0  0  0  2  0  0  0  0  0  0
  -13.7700    3.0660   51.6340 N   0  0  0  0  0  2  0  0  0  0  0  0
   -9.7050    4.0820   51.2440 N   0  0  0  0  0  2  0  0  0  0  0  0
  -14.4400    5.7310   49.1160 O   0  0  0  0  0  1  0  0  0  0  0  0
  -10.8770    2.0750   49.4370 O   0  0  0  0  0  1  0  0  0  0  0  0
  1  2  1  0
  1 24  1  0
  2  3  1  0
  3  4  1  0
  4  5  1  0
  5  6  1  0
  5 26  1  0
  6  7  1  0
  7  8  1  0
  8  9  1  0
  8 28  1  0
  9 10  1  0
  9 26  1  0
 10 25  1  0
 11 12  1  0
 11 23  1  0
 11 24  1  0
 12 13  1  0
 12 17  1  0
 13 14  1  0
 14 15  1  0
 15 16  1  0
 16 17  1  0
 17 27  1  0
 18 19  1  0
 18 23  1  0
 18 27  1  0
 19 20  1  0
 20 21  1  0
 21 22  1  0
 22 23  1  0
 25 29  1  0
M  END
$$$$
