6g4m_A_DQ5_602
     RDKit          3D

 29 32  0  0  0  0  0  0  0  0999 V2000
   -5.1890   -2.6580   55.5000 C   0  0  0  0  0  2  0  0  0  0  0  0
   -6.6820   -2.2180   55.3700 C   0  0  0  0  0  2  0  0  0  0  0  0
   -7.0370   -1.3660   54.0900 C   0  0  0  0  0  2  0  0  0  0  0  0
   -5.8550   -0.7490   53.2670 C   0  0  0  0  0  2  0  0  0  0  0  0
   -6.3470   -0.1330   51.9280 C   0  0  0  0  0  3  0  0  0  0  0  0
   -7.2070   -0.8980   51.1590 C   0  0  0  0  0  2  0  0  0  0  0  0
   -7.6930   -0.4240   49.9560 C   0  0  0  0  0  2  0  0  0  0  0  0
   -7.3350    0.8100   49.4860 C   0  0  0  0  0  3  0  0  0  0  0  0
   -6.4630    1.6050   50.2490 C   0  0  0  0  0  3  0  0  0  0  0  0
   -6.0890    2.9930   49.6820 C   0  0  0  0  0  2  0  0  0  0  0  0
   -4.0950   -4.9500   55.1540 C   0  0  0  0  0  3  0  0  0  0  0  0
   -2.6550   -4.7100   55.0390 C   0  0  0  0  0  3  0  0  0  0  0  0
   -1.9820   -3.5540   55.7510 C   0  0  0  0  0  2  0  0  0  0  0  0
   -0.4600   -3.7370   55.8490 C   0  0  0  0  0  2  0  0  0  0  0  0
    0.1820   -4.1880   54.5490 C   0  0  0  0  0  2  0  0  0  0  0  0
   -0.4040   -5.4930   54.0440 C   0  0  0  0  0  2  0  0  0  0  0  0
   -1.8980   -5.5930   54.2590 C   0  0  0  0  0  3  0  0  0  0  0  0
   -3.8420   -6.9120   53.6800 C   0  0  0  0  0  3  0  0  0  0  0  0
   -4.3820   -8.0050   53.0040 C   0  0  0  0  0  2  0  0  0  0  0  0
   -5.7510   -8.2660   53.0850 C   0  0  0  0  0  2  0  0  0  0  0  0
   -6.5850   -7.4510   53.8300 C   0  0  0  0  0  2  0  0  0  0  0  0
   -6.0300   -6.3630   54.5190 C   0  0  0  0  0  2  0  0  0  0  0  0
   -4.6600   -6.0810   54.4450 C   0  0  0  0  0  3  0  0  0  0  0  0
   -4.9570   -4.0460   55.9490 N   0  0  0  0  0  2  0  0  0  0  0  0
   -7.0230    3.8240   49.2170 N   0  0  0  0  0  2  0  0  0  0  0  0
   -5.9750    1.1250   51.4630 N   0  0  0  0  0  2  0  0  0  0  0  0
   -2.4730   -6.6710   53.5900 N   0  0  0  0  0  2  0  0  0  0  0  0
   -7.8630    1.2590   48.2390 O   0  0  0  0  0  1  0  0  0  0  0  0
   -6.7960    4.7460   48.2150 O   0  0  0  0  0  1  0  0  0  0  0  0
  1  2  1  0
  1 24  1  0
  2  3  1  0
  3  4  1  0
  4  5  1  0
  5  6  1  0
  5 26  1  0
  6  7  1  0
  7  8  1  0
  8  9  1  0
  8 28  1  0
  9 10  1  0
  9 26  1  0
 10 25  1  0
 11 12  1  0
 11 23  1  0
 11 24  1  0
 12 13  1  0
 12 17  1  0
 13 14  1  0
 14 15  1  0
 15 16  1  0
 16 17  1  0
 17 27  1  0
 18 19  1  0
 18 23  1  0
 18 27  1  0
 19 20  1  0
 20 21  1  0
 21 22  1  0
 22 23  1  0
 25 29  1  0
M  END
$$$$
