6g4n_A_E2W_603
     RDKit          3D

 30 33  0  0  0  0  0  0  0  0999 V2000
   -9.4970    3.5330   51.9510 C   0  0  0  0  0  2  0  0  0  0  0  0
  -14.1890    5.0310   50.3680 C   0  0  0  0  0  2  0  0  0  0  0  0
  -13.4600    8.5070   53.3810 C   0  0  0  0  0  2  0  0  0  0  0  0
  -14.0120    9.5070   52.4330 C   0  0  0  0  0  2  0  0  0  0  0  0
  -12.9170   10.0680   51.5440 C   0  0  0  0  0  2  0  0  0  0  0  0
  -12.1280    8.9480   50.8210 C   0  0  0  0  0  2  0  0  0  0  0  0
  -14.0670    5.7320   55.3290 C   0  0  0  0  0  2  0  0  0  0  0  0
  -14.2330    4.5920   56.3950 C   0  0  0  0  0  2  0  0  0  0  0  0
  -15.1900    3.4180   56.0240 C   0  0  0  0  0  2  0  0  0  0  0  0
  -15.8650    3.4410   54.6420 C   0  0  0  0  0  2  0  0  0  0  0  0
  -14.9660    3.2490   53.4710 C   0  0  0  0  0  3  0  0  0  0  0  0
   -9.9750    3.3790   53.2550 C   0  0  0  0  0  3  0  0  0  0  0  0
  -14.1120    2.1270   53.4500 C   0  0  0  0  0  2  0  0  0  0  0  0
  -13.2610    1.9510   52.3730 C   0  0  0  0  0  2  0  0  0  0  0  0
  -13.2670    2.8960   51.3500 C   0  0  0  0  0  3  0  0  0  0  0  0
  -14.1490    4.0160   51.4300 C   0  0  0  0  0  3  0  0  0  0  0  0
  -10.8170    4.2920   53.8260 C   0  0  0  0  0  2  0  0  0  0  0  0
  -11.2240    5.4230   53.0950 C   0  0  0  0  0  3  0  0  0  0  0  0
  -10.7640    5.6150   51.7840 C   0  0  0  0  0  3  0  0  0  0  0  0
   -9.8820    4.6360   51.2280 C   0  0  0  0  0  2  0  0  0  0  0  0
  -12.1080    6.3860   53.6730 C   0  0  0  0  0  3  0  0  0  0  0  0
  -12.5260    7.4560   52.8760 C   0  0  0  0  0  3  0  0  0  0  0  0
  -12.0090    7.5990   51.5390 C   0  0  0  0  0  3  0  0  0  0  0  0
   -9.4930    2.0110   54.1680 Cl  0  0  0  0  0  0  0  0  0  0  0  0
  -11.1350    6.7130   51.0100 N   0  0  0  0  0  2  0  0  0  0  0  0
  -12.6490    6.0780   54.9560 N   0  0  0  0  0  2  0  0  0  0  0  0
  -14.9720    4.1870   52.4770 N   0  0  0  0  0  2  0  0  0  0  0  0
  -13.7790    5.0470   49.1380 N   0  0  0  0  0  2  0  0  0  0  0  0
  -13.1620    3.9660   48.6570 O   0  0  0  0  0  1  0  0  0  0  0  0
  -12.4540    2.7890   50.2530 O   0  0  0  0  0  1  0  0  0  0  0  0
  1 12  1  0
  1 20  1  0
  2 16  1  0
  2 28  1  0
  3  4  1  0
  3 22  1  0
  4  5  1  0
  5  6  1  0
  6 23  1  0
  7  8  1  0
  7 26  1  0
  8  9  1  0
  9 10  1  0
 10 11  1  0
 11 13  1  0
 11 27  1  0
 12 17  1  0
 12 24  1  0
 13 14  1  0
 14 15  1  0
 15 16  1  0
 15 30  1  0
 16 27  1  0
 17 18  1  0
 18 19  1  0
 18 21  1  0
 19 20  1  0
 19 25  1  0
 21 22  1  0
 21 26  1  0
 22 23  1  0
 23 25  1  0
 28 29  1  0
M  END
$$$$
