6tt0_A_N9T_601
     RDKit          3D

 32 35  0  0  0  0  0  0  0  0999 V2000
   -2.3590   69.4390  303.3490 C   0  0  0  0  0  1  0  0  0  0  0  0
   -3.5560   67.7640  302.1170 C   0  0  0  0  0  3  0  0  0  0  0  0
   -4.7450   67.2570  301.6250 C   0  0  0  0  0  3  0  0  0  0  0  0
   -6.2190   68.4440  303.0750 C   0  0  0  0  0  1  0  0  0  0  0  0
   -4.7300   66.1690  300.8100 C   0  0  0  0  0  2  0  0  0  0  0  0
   -3.6610   65.4840  300.4110 C   0  0  0  0  0  3  0  0  0  0  0  0
   -3.2290   64.2730  299.5500 C   0  0  0  0  0  2  0  0  0  0  0  0
   -1.9100   63.9230  299.4290 C   0  0  0  0  0  3  0  0  0  0  0  0
   -2.3270   61.9640  297.9090 C   0  0  0  0  0  3  0  0  0  0  0  0
   -1.8180   60.8150  297.0760 C   0  0  0  0  0  3  0  0  0  0  0  0
   -2.2230   59.5450  297.7400 C   0  0  0  0  0  2  0  0  0  0  0  0
   -1.7390   58.3440  296.9830 C   0  0  0  0  0  2  0  0  0  0  0  0
   -0.2420   58.4110  296.8490 C   0  0  0  0  0  2  0  0  0  0  0  0
    0.0950   59.6580  296.0740 C   0  0  0  0  0  3  0  0  0  0  0  0
   -0.3200   60.7930  296.9750 C   0  0  0  0  0  2  0  0  0  0  0  0
    1.9280   58.5610  295.0160 C   0  0  0  0  0  2  0  0  0  0  0  0
    1.5400   58.5440  293.5440 C   0  0  0  0  0  3  0  0  0  0  0  0
    1.7750   59.6080  292.7290 C   0  0  0  0  0  2  0  0  0  0  0  0
    1.4140   59.5500  291.4020 C   0  0  0  0  0  2  0  0  0  0  0  0
    0.8350   58.4240  290.8890 C   0  0  0  0  0  2  0  0  0  0  0  0
    0.6130   57.3500  291.7060 C   0  0  0  0  0  2  0  0  0  0  0  0
    0.9760   57.4180  293.0170 C   0  0  0  0  0  2  0  0  0  0  0  0
   -0.9510   64.6150  300.0310 C   0  0  0  0  0  3  0  0  0  0  0  0
   -2.3440   66.0870  300.9860 C   0  0  0  0  0  3  0  0  0  0  0  0
   -2.3520   67.1740  301.7920 C   0  0  0  0  0  2  0  0  0  0  0  0
   -1.4590   62.8130  298.6400 N   0  0  0  0  0  2  0  0  0  0  0  0
    1.4900   59.7250  295.7580 N   0  0  0  0  0  2  0  0  0  0  0  0
   -3.5680   68.8820  302.9450 O   0  0  0  0  0  0  0  0  0  0  0  0
   -5.9920   67.7850  301.8790 O   0  0  0  0  0  0  0  0  0  0  0  0
   -3.4610   62.1470  297.9240 O   0  0  0  0  0  1  0  0  0  0  0  0
    0.3600   64.2500  299.8790 O   0  0  0  0  0  1  0  0  0  0  0  0
   -1.1880   65.5590  300.7130 O   0  0  0  0  0  0  0  0  0  0  0  0
  1 28  1  0
  2  3  1  0
  2 25  1  0
  2 28  1  0
  3  5  1  0
  3 29  1  0
  4 29  1  0
  5  6  1  0
  6  7  1  0
  6 24  1  0
  7  8  1  0
  8 23  1  0
  8 26  1  0
  9 10  1  0
  9 26  1  0
  9 30  1  0
 10 11  1  0
 10 15  1  0
 11 12  1  0
 12 13  1  0
 13 14  1  0
 14 15  1  0
 14 27  1  0
 16 17  1  0
 16 27  1  0
 17 18  1  0
 17 22  1  0
 18 19  1  0
 19 20  1  0
 20 21  1  0
 21 22  1  0
 23 31  1  0
 23 32  1  0
 24 25  1  0
 24 32  1  0
M  END
$$$$
