7ait_A_8UK_601
     RDKit          3D

 39 43  0  0  0  0  0  0  0  0999 V2000
  -11.0820   60.1230   51.1130 C   0  0  0  0  0  1  0  0  0  0  0  0
   -1.4380   52.5530   53.5020 C   0  0  0  0  0  1  0  0  0  0  0  0
   -0.2120   50.5750   54.0410 C   0  0  0  0  0  2  0  0  0  0  0  0
  -11.9950   55.6780   51.2680 C   0  0  0  0  0  2  0  0  0  0  0  0
   -6.7200   46.5490   54.1780 C   0  0  0  0  0  2  0  0  0  0  0  0
  -11.4590   55.4830   52.5410 C   0  0  0  0  0  2  0  0  0  0  0  0
   -6.0750   47.5040   54.9450 C   0  0  0  0  0  2  0  0  0  0  0  0
  -10.3540   57.6330   52.4190 C   0  0  0  0  0  2  0  0  0  0  0  0
   -4.5840   46.0190   53.1800 C   0  0  0  0  0  2  0  0  0  0  0  0
   -6.1520   51.8550   56.3590 C   0  0  0  0  0  2  0  0  0  0  0  0
   -7.2100   52.9450   56.5250 C   0  0  0  0  0  2  0  0  0  0  0  0
   -6.8210   50.4810   56.3800 C   0  0  0  0  0  2  0  0  0  0  0  0
   -8.3970   52.6250   55.6310 C   0  0  0  0  0  2  0  0  0  0  0  0
   -5.9110   49.5340   57.1530 C   0  0  0  0  0  2  0  0  0  0  0  0
   -8.0490   53.0290   54.2070 C   0  0  0  0  0  2  0  0  0  0  0  0
  -10.1160   56.2420   54.3930 C   0  0  0  0  0  2  0  0  0  0  0  0
   -2.0420   51.2890   55.5260 C   0  0  0  0  0  2  0  0  0  0  0  0
   -0.5570   48.1670   54.2940 C   0  0  0  0  0  2  0  0  0  0  0  0
   -0.4230   49.6230   56.2840 C   0  0  0  0  0  2  0  0  0  0  0  0
   -1.2510   51.4480   54.3490 C   0  0  0  0  0  3  0  0  0  0  0  0
   -8.4270   54.4950   54.0100 C   0  0  0  0  0  3  0  0  0  0  0  0
   -5.9650   45.8020   53.2820 C   0  0  0  0  0  3  0  0  0  0  0  0
  -11.7050   56.8490   50.5740 C   0  0  0  0  0  3  0  0  0  0  0  0
  -10.6400   56.4550   53.1160 C   0  0  0  0  0  3  0  0  0  0  0  0
   -1.9540   48.0970   54.5370 C   0  0  0  0  0  3  0  0  0  0  0  0
  -10.8890   57.8270   51.1440 C   0  0  0  0  0  3  0  0  0  0  0  0
   -3.9980   48.7350   55.6360 C   0  0  0  0  0  3  0  0  0  0  0  0
   -2.6120   48.9030   55.4770 C   0  0  0  0  0  3  0  0  0  0  0  0
   -3.9670   46.9990   53.9630 C   0  0  0  0  0  3  0  0  0  0  0  0
   -4.7030   47.7640   54.8730 C   0  0  0  0  0  3  0  0  0  0  0  0
    0.0720   49.4510   54.8410 C   0  0  0  0  0  3  0  0  0  0  0  0
   -1.9150   49.8960   56.2170 C   0  0  0  0  0  3  0  0  0  0  0  0
   -6.7730   44.6240   52.3170 Cl  0  0  0  0  0  0  0  0  0  0  0  0
   -2.6510   47.1840   53.8370 N   0  0  0  0  0  2  0  0  0  0  0  0
   -9.6220   54.8580   54.5090 N   0  0  0  0  0  2  0  0  0  0  0  0
   -4.5780   49.5690   56.5430 N   0  0  0  0  0  2  0  0  0  0  0  0
   -7.6570   55.2570   53.4250 O   0  0  0  0  0  1  0  0  0  0  0  0
  -12.2020   57.0900   49.3300 O   0  0  0  0  0  1  0  0  0  0  0  0
  -10.6510   58.9540   50.4010 O   0  0  0  0  0  0  0  0  0  0  0  0
  1 39  1  0
  2 20  1  0
  3 20  1  0
  3 31  1  0
  4  6  1  0
  4 23  1  0
  5  7  1  0
  5 22  1  0
  6 24  1  0
  7 30  1  0
  8 24  1  0
  8 26  1  0
  9 22  1  0
  9 29  1  0
 10 11  1  0
 10 12  1  0
 11 13  1  0
 12 14  1  0
 13 15  1  0
 14 36  1  0
 15 21  1  0
 16 24  1  0
 16 35  1  0
 17 20  1  0
 17 32  1  0
 18 25  1  0
 18 31  1  0
 19 31  1  0
 19 32  1  0
 21 35  1  0
 21 37  1  0
 22 33  1  0
 23 26  1  0
 23 38  1  0
 25 28  1  0
 25 34  1  0
 26 39  1  0
 27 28  1  0
 27 30  1  0
 27 36  1  0
 28 32  1  0
 29 30  1  0
 29 34  1  0
M  END
$$$$
