7aiu_B_8UQ_605
     RDKit          3D

 80207  0  0  0  0  0  0  0  0999 V2000
   96.6060  114.0340   80.1110 C   0  0  0  0  0  5  0  0  0  0  0  0
   96.6100  114.0020   80.1080 C   0  0  0  0  0  5  0  0  0  0  0  0
   97.9660  114.2740   80.2120 C   0  0  0  0  0  7  0  0  0  0  0  0
   97.9750  114.2300   80.1970 C   0  0  0  0  0  7  0  0  0  0  0  0
   98.7370  113.5110   81.0830 C   0  0  0  0  0  5  0  0  0  0  0  0
   98.7490  113.4670   81.0670 C   0  0  0  0  0  5  0  0  0  0  0  0
   98.1350  112.5130   81.8410 C   0  0  0  0  0  5  0  0  0  0  0  0
   98.1480  112.4760   81.8330 C   0  0  0  0  0  5  0  0  0  0  0  0
   96.7670  112.2380   81.7540 C   0  0  0  0  0  7  0  0  0  0  0  0
   96.7780  112.2080   81.7580 C   0  0  0  0  0  7  0  0  0  0  0  0
   96.0200  113.0290   80.8680 C   0  0  0  0  0  7  0  0  0  0  0  0
   96.0280  113.0010   80.8740 C   0  0  0  0  0  7  0  0  0  0  0  0
   94.0200  111.9380   81.3840 C   0  0  0  0  0  7  0  0  0  0  0  0
   94.0270  111.9230   81.4150 C   0  0  0  0  0  7  0  0  0  0  0  0
   94.6900  111.1150   82.3160 C   0  0  0  0  0  7  0  0  0  0  0  0
   94.6980  111.0980   82.3470 C   0  0  0  0  0  7  0  0  0  0  0  0
   96.0770  111.2320   82.4800 C   0  0  0  0  0  7  0  0  0  0  0  0
   96.0910  111.2080   82.4970 C   0  0  0  0  0  7  0  0  0  0  0  0
   93.8920  110.1520   82.8750 C   0  0  0  0  0  7  0  0  0  0  0  0
   93.8970  110.1390   82.9080 C   0  0  0  0  0  7  0  0  0  0  0  0
   92.5600  110.4250   83.2670 C   0  0  0  0  0  5  0  0  0  0  0  0
   92.5600  110.4510   83.2410 C   0  0  0  0  0  5  0  0  0  0  0  0
   92.3620  110.4740   81.8060 C   0  0  0  0  0  7  0  0  0  0  0  0
   92.3690  110.4790   81.7840 C   0  0  0  0  0  7  0  0  0  0  0  0
   92.6140  111.8130   81.1660 C   0  0  0  0  0  5  0  0  0  0  0  0
   92.6170  111.8120   81.2060 C   0  0  0  0  0  5  0  0  0  0  0  0
   94.1140  108.6940   82.5290 C   0  0  0  0  0  5  0  0  0  0  0  0
   94.1140  108.6990   82.5360 C   0  0  0  0  0  5  0  0  0  0  0  0
   93.2560  108.4330   81.3940 C   0  0  0  0  0  7  0  0  0  0  0  0
   93.2670  108.4490   81.3680 C   0  0  0  0  0  7  0  0  0  0  0  0
   93.3640  107.2430   80.6690 C   0  0  0  0  0  3  0  0  0  0  0  0
   93.3850  107.2760   80.6140 C   0  0  0  0  0  3  0  0  0  0  0  0
   98.0480  109.8910   83.4290 C   0  0  0  0  0  5  0  0  0  0  0  0
   98.0790  109.8490   83.4040 C   0  0  0  0  0  5  0  0  0  0  0  0
   98.1340  108.3860   83.1660 C   0  0  0  0  0  5  0  0  0  0  0  0
   98.1630  108.3580   83.0480 C   0  0  0  0  0  5  0  0  0  0  0  0
   99.5770  108.0330   82.7860 C   0  0  0  0  0  5  0  0  0  0  0  0
   99.6040  107.9920   82.6440 C   0  0  0  0  0  5  0  0  0  0  0  0
  102.7810  103.1080   80.5790 C   0  0  0  0  0  7  0  0  0  0  0  0
  102.8670  102.9300   80.6640 C   0  0  0  0  0  7  0  0  0  0  0  0
  102.2500  101.4220   78.8150 C   0  0  0  0  0  5  0  0  0  0  0  0
  102.3540  101.6710   78.6580 C   0  0  0  0  0  5  0  0  0  0  0  0
  102.7880  101.6570   77.5500 C   0  0  0  0  0  7  0  0  0  0  0  0
  102.9550  101.8780   77.4270 C   0  0  0  0  0  7  0  0  0  0  0  0
  102.7560  100.6930   76.5450 C   0  0  0  0  0  0  0  0  0  0  0  0
  104.3380  102.0420   77.3150 C   0  0  0  0  0  5  0  0  0  0  0  0
  103.3150  100.9740   75.2970 C   0  0  0  0  0  5  0  0  0  0  0  0
  104.9140  102.2520   76.0620 C   0  0  0  0  0  5  0  0  0  0  0  0
  103.8900  102.2190   75.0530 C   0  0  0  0  0  7  0  0  0  0  0  0
  104.1050  102.2980   74.9310 C   0  0  0  0  0  7  0  0  0  0  0  0
  102.7420  102.1450   75.0680 C   0  0  0  0  0  0  0  0  0  0  0  0
  103.9210  103.1800   76.0550 C   0  0  0  0  0  5  0  0  0  0  0  0
  102.1520  101.9280   76.3010 C   0  0  0  0  0  0  0  0  0  0  0  0
  103.3720  102.8890   77.2950 C   0  0  0  0  0  0  0  0  0  0  0  0
  104.6120   99.4650   74.0900 C   0  0  0  0  0  1  0  0  0  0  0  0
  106.5460  103.7950   75.6170 C   0  0  0  0  0  1  0  0  0  0  0  0
  102.6550  104.5180   81.1440 C   0  0  0  0  0  5  0  0  0  0  0  0
  102.6960  104.3240   81.2840 C   0  0  0  0  0  5  0  0  0  0  0  0
  101.2290  104.6720   81.5420 C   0  0  0  0  0  5  0  0  0  0  0  0
  101.2440  104.7510   81.6760 C   0  0  0  0  0  5  0  0  0  0  0  0
  100.9590  106.2550   81.6740 C   0  0  0  0  0  5  0  0  0  0  0  0
  101.0680  106.2010   81.5930 C   0  0  0  0  0  5  0  0  0  0  0  0
   99.6440  106.5830   82.0230 C   0  0  0  0  0  5  0  0  0  0  0  0
   99.6850  106.5380   82.4710 C   0  0  0  0  0  5  0  0  0  0  0  0
   92.2420  109.3460   81.0320 C   0  0  0  0  0  5  0  0  0  0  0  0
   92.2440  109.3600   81.0270 C   0  0  0  0  0  5  0  0  0  0  0  0
   98.6830  115.5060   79.2580 Cl  0  0  0  0  0  3  0  0  0  0  0  0
   98.7020  115.4440   79.2370 Cl  0  0  0  0  0  3  0  0  0  0  0  0
   94.7070  112.8600   80.7120 N   0  0  0  0  0  5  0  0  0  0  0  0
   94.7130  112.8380   80.7350 N   0  0  0  0  0  5  0  0  0  0  0  0
   96.6560  110.3970   83.3850 N   0  0  0  0  0  5  0  0  0  0  0  0
   96.6860  110.3730   83.3970 N   0  0  0  0  0  5  0  0  0  0  0  0
  102.1650  102.7040   79.5430 N   0  0  0  0  0  5  0  0  0  0  0  0
  102.2860  102.9590   79.3490 N   0  0  0  0  0  5  0  0  0  0  0  0
  103.3130  102.2030   81.2210 O   0  0  0  0  0  3  0  0  0  0  0  0
  103.6370  102.1080   81.1630 O   0  0  0  0  0  3  0  0  0  0  0  0
  104.4120  102.4530   73.8140 O   0  0  0  0  0  3  0  0  0  0  0  0
  104.6700  102.4970   73.7060 O   0  0  0  0  0  3  0  0  0  0  0  0
  103.3210  100.0720   74.2690 O   0  0  0  0  0  0  0  0  0  0  0  0
  106.2550  102.4170   75.8870 O   0  0  0  0  0  0  0  0  0  0  0  0
  1  2  1  0
  1  3  1  0
  1  4  1  0
  1 11  1  0
  1 12  1  0
  2  3  1  0
  2  4  1  0
  2 11  1  0
  2 12  1  0
  3  4  1  0
  3  5  1  0
  3  6  1  0
  3 67  1  0
  3 68  1  0
  4  5  1  0
  4  6  1  0
  4 67  1  0
  4 68  1  0
  5  6  1  0
  5  7  1  0
  5  8  1  0
  6  7  1  0
  6  8  1  0
  7  8  1  0
  7  9  1  0
  7 10  1  0
  8  9  1  0
  8 10  1  0
  9 10  1  0
  9 11  1  0
  9 12  1  0
  9 17  1  0
  9 18  1  0
 10 11  1  0
 10 12  1  0
 10 17  1  0
 10 18  1  0
 11 12  1  0
 11 69  1  0
 11 70  1  0
 12 69  1  0
 12 70  1  0
 13 14  1  0
 13 15  1  0
 13 16  1  0
 13 25  1  0
 13 26  1  0
 13 69  1  0
 13 70  1  0
 14 15  1  0
 14 16  1  0
 14 25  1  0
 14 26  1  0
 14 69  1  0
 14 70  1  0
 15 16  1  0
 15 17  1  0
 15 18  1  0
 15 19  1  0
 15 20  1  0
 16 17  1  0
 16 18  1  0
 16 19  1  0
 16 20  1  0
 17 18  1  0
 17 71  1  0
 17 72  1  0
 18 71  1  0
 18 72  1  0
 19 20  1  0
 19 21  1  0
 19 22  1  0
 19 27  1  0
 19 28  1  0
 20 21  1  0
 20 22  1  0
 20 27  1  0
 20 28  1  0
 21 22  1  0
 21 23  1  0
 21 24  1  0
 22 23  1  0
 22 24  1  0
 23 24  1  0
 23 25  1  0
 23 26  1  0
 23 65  1  0
 23 66  1  0
 24 25  1  0
 24 26  1  0
 24 65  1  0
 24 66  1  0
 25 26  1  0
 27 28  1  0
 27 29  1  0
 27 30  1  0
 28 29  1  0
 28 30  1  0
 29 30  1  0
 29 31  1  0
 29 32  1  0
 29 65  1  0
 29 66  1  0
 30 31  1  0
 30 32  1  0
 30 65  1  0
 30 66  1  0
 31 32  1  0
 33 34  1  0
 33 35  1  0
 33 36  1  0
 33 71  1  0
 33 72  1  0
 34 35  1  0
 34 36  1  0
 34 71  1  0
 34 72  1  0
 35 36  1  0
 35 37  1  0
 35 38  1  0
 36 37  1  0
 36 38  1  0
 37 38  1  0
 37 63  1  0
 37 64  1  0
 38 63  1  0
 38 64  1  0
 39 40  1  0
 39 57  1  0
 39 58  1  0
 39 73  1  0
 39 74  1  0
 39 75  1  0
 39 76  1  0
 40 57  1  0
 40 58  1  0
 40 73  1  0
 40 74  1  0
 40 75  1  0
 40 76  1  0
 41 42  1  0
 41 43  1  0
 41 44  1  0
 41 73  1  0
 41 74  1  0
 42 43  1  0
 42 44  1  0
 42 73  1  0
 42 74  1  0
 43 44  1  0
 43 45  1  0
 43 46  1  0
 43 53  1  0
 43 54  1  0
 44 45  1  0
 44 46  1  0
 44 53  1  0
 44 54  1  0
 45 47  1  0
 45 53  1  0
 46 48  1  0
 46 52  1  0
 46 54  1  0
 47 49  1  0
 47 50  1  0
 47 51  1  0
 47 79  1  0
 48 49  1  0
 48 50  1  0
 48 52  1  0
 48 80  1  0
 49 50  1  0
 49 51  1  0
 49 52  1  0
 49 77  1  0
 49 78  1  0
 50 51  1  0
 50 52  1  0
 50 77  1  0
 50 78  1  0
 51 53  1  0
 52 54  1  0
 55 79  1  0
 56 80  1  0
 57 58  1  0
 57 59  1  0
 57 60  1  0
 58 59  1  0
 58 60  1  0
 59 60  1  0
 59 61  1  0
 59 62  1  0
 60 61  1  0
 60 62  1  0
 61 62  1  0
 61 63  1  0
 61 64  1  0
 62 63  1  0
 62 64  1  0
 63 64  1  0
 65 66  1  0
 67 68  1  0
 69 70  1  0
 71 72  1  0
 73 74  1  0
 75 76  1  0
 77 78  1  0
M  END
$$$$
