7aiv_B_8UE_601
     RDKit          3D

 41 46  0  0  0  0  0  0  0  0999 V2000
   91.1120  165.1950   97.2850 C   0  0  0  0  0  2  0  0  0  0  0  0
   91.8460  164.0620   96.6000 C   0  0  0  0  0  3  0  0  0  0  0  0
   91.3810  163.9650   95.1570 C   0  0  0  0  0  2  0  0  0  0  0  0
   91.6470  162.7310   97.3290 C   0  0  0  0  0  2  0  0  0  0  0  0
   90.4920  162.0620   96.9710 C   0  0  0  0  0  3  0  0  0  0  0  0
   90.2080  160.8900   97.6650 C   0  0  0  0  0  1  0  0  0  0  0  0
   89.6810  162.4700   95.9030 C   0  0  0  0  0  2  0  0  0  0  0  0
   89.8850  163.6570   95.1760 C   0  0  0  0  0  3  0  0  0  0  0  0
   89.1180  164.5930   95.9050 C   0  0  0  0  0  3  0  0  0  0  0  0
   89.7470  165.2940   96.9560 C   0  0  0  0  0  3  0  0  0  0  0  0
   87.7590  166.4220   97.5340 C   0  0  0  0  0  3  0  0  0  0  0  0
   87.1180  167.3420   98.3590 C   0  0  0  0  0  2  0  0  0  0  0  0
   85.7610  167.6060   98.1920 C   0  0  0  0  0  3  0  0  0  0  0  0
   85.0540  166.9430   97.1880 C   0  0  0  0  0  2  0  0  0  0  0  0
   85.7080  166.0270   96.3670 C   0  0  0  0  0  2  0  0  0  0  0  0
   87.0650  165.7580   96.5370 C   0  0  0  0  0  3  0  0  0  0  0  0
   87.7270  164.8300   95.7270 C   0  0  0  0  0  3  0  0  0  0  0  0
   86.9080  162.8950   94.2070 C   0  0  0  0  0  2  0  0  0  0  0  0
   82.7290  159.7800   96.2740 C   0  0  0  0  0  2  0  0  0  0  0  0
   83.1100  158.7030   97.2730 C   0  0  0  0  0  3  0  0  0  0  0  0
   82.6370  157.8220   99.5570 C   0  0  0  0  0  2  0  0  0  0  0  0
   81.4530  157.4630  100.2040 C   0  0  0  0  0  3  0  0  0  0  0  0
   81.4580  157.2250  101.5880 C   0  0  0  0  0  2  0  0  0  0  0  0
   80.2710  157.3250   99.4740 C   0  0  0  0  0  2  0  0  0  0  0  0
   79.0910  156.9560  100.1310 C   0  0  0  0  0  2  0  0  0  0  0  0
   79.0910  156.7210  101.5140 C   0  0  0  0  0  3  0  0  0  0  0  0
   80.2850  156.8390  102.2610 C   0  0  0  0  0  3  0  0  0  0  0  0
   79.8330  155.4150  104.2870 C   0  0  0  0  0  1  0  0  0  0  0  0
   83.8140  160.5210   95.7620 C   0  0  0  0  0  3  0  0  0  0  0  0
   84.7830  159.9500   94.9440 C   0  0  0  0  0  2  0  0  0  0  0  0
   85.8110  160.7460   94.4390 C   0  0  0  0  0  2  0  0  0  0  0  0
   85.8760  162.1110   94.7270 C   0  0  0  0  0  3  0  0  0  0  0  0
   84.9050  162.6820   95.5310 C   0  0  0  0  0  2  0  0  0  0  0  0
   83.8880  161.8840   96.0330 C   0  0  0  0  0  2  0  0  0  0  0  0
   84.9470  168.7640   99.2530 Cl  0  0  0  0  0  0  0  0  0  0  0  0
   89.0590  166.1740   97.7050 N   0  0  0  0  0  2  0  0  0  0  0  0
   86.9280  164.2670   94.7720 N   0  0  0  0  0  2  0  0  0  0  0  0
   82.4090  158.7550   98.4350 N   0  0  0  0  0  2  0  0  0  0  0  0
   83.9640  157.8620   96.9830 O   0  0  0  0  0  1  0  0  0  0  0  0
   77.9350  156.3670  102.1590 O   0  0  0  0  0  1  0  0  0  0  0  0
   80.2850  156.6280  103.6430 O   0  0  0  0  0  0  0  0  0  0  0  0
  1  2  1  0
  1 10  1  0
  2  3  1  0
  2  4  1  0
  3  8  1  0
  4  5  1  0
  5  6  1  0
  5  7  1  0
  7  8  1  0
  8  9  1  0
  9 10  1  0
  9 17  1  0
 10 36  1  0
 11 12  1  0
 11 16  1  0
 11 36  1  0
 12 13  1  0
 13 14  1  0
 13 35  1  0
 14 15  1  0
 15 16  1  0
 16 17  1  0
 17 37  1  0
 18 32  1  0
 18 37  1  0
 19 20  1  0
 19 29  1  0
 20 38  1  0
 20 39  1  0
 21 22  1  0
 21 38  1  0
 22 23  1  0
 22 24  1  0
 23 27  1  0
 24 25  1  0
 25 26  1  0
 26 27  1  0
 26 40  1  0
 27 41  1  0
 28 41  1  0
 29 30  1  0
 29 34  1  0
 30 31  1  0
 31 32  1  0
 32 33  1  0
 33 34  1  0
M  END
$$$$
