7aiw_B_8U5_601
     RDKit          3D

 42 46  0  0  0  0  0  0  0  0999 V2000
  142.4890   98.9160   97.7450 C   0  0  0  0  0  2  0  0  0  0  0  0
  143.8640   98.6910   97.6430 C   0  0  0  0  0  3  0  0  0  0  0  0
  144.6360   99.4590   96.7750 C   0  0  0  0  0  2  0  0  0  0  0  0
  144.0280  100.4500   96.0190 C   0  0  0  0  0  2  0  0  0  0  0  0
  142.6520  100.7110   96.0990 C   0  0  0  0  0  3  0  0  0  0  0  0
  141.8940   99.9220   96.9780 C   0  0  0  0  0  3  0  0  0  0  0  0
  139.8950  101.0350   96.4150 C   0  0  0  0  0  3  0  0  0  0  0  0
  140.5850  101.8790   95.5050 C   0  0  0  0  0  3  0  0  0  0  0  0
  141.9810  101.7140   95.3610 C   0  0  0  0  0  3  0  0  0  0  0  0
  139.9150  102.9170   94.7760 C   0  0  0  0  0  3  0  0  0  0  0  0
  138.4090  102.6830   94.6990 C   0  0  0  0  0  2  0  0  0  0  0  0
  138.2680  102.5310   96.1500 C   0  0  0  0  0  3  0  0  0  0  0  0
  138.4790  101.1440   96.6270 C   0  0  0  0  0  2  0  0  0  0  0  0
  140.0950  104.2750   95.5570 C   0  0  0  0  0  2  0  0  0  0  0  0
  139.1940  104.4860   96.6880 C   0  0  0  0  0  3  0  0  0  0  0  0
  139.3310  105.6450   97.4850 C   0  0  0  0  0  1  0  0  0  0  0  0
  143.9940  103.1220   94.5560 C   0  0  0  0  0  2  0  0  0  0  0  0
  144.0150  104.6300   94.8380 C   0  0  0  0  0  2  0  0  0  0  0  0
  145.3180  104.9670   95.5880 C   0  0  0  0  0  2  0  0  0  0  0  0
  145.8220  106.3950   95.3010 C   0  0  0  0  0  2  0  0  0  0  0  0
  149.4600  112.0580   97.6740 C   0  0  0  0  0  3  0  0  0  0  0  0
  148.8190  112.5320  100.0790 C   0  0  0  0  0  2  0  0  0  0  0  0
  147.9480  111.6620  100.7100 C   0  0  0  0  0  3  0  0  0  0  0  0
  146.7400  112.0680  101.2690 C   0  0  0  0  0  2  0  0  0  0  0  0
  145.9090  111.0870  101.8170 C   0  0  0  0  0  3  0  0  0  0  0  0
  146.2740  109.7370  101.7790 C   0  0  0  0  0  3  0  0  0  0  0  0
  147.4670  109.3340  101.2050 C   0  0  0  0  0  2  0  0  0  0  0  0
  148.2820  110.3090  100.6610 C   0  0  0  0  0  2  0  0  0  0  0  0
  144.7710  112.6940  102.9810 C   0  0  0  0  0  1  0  0  0  0  0  0
  148.9520  111.2760   96.4410 C   0  0  0  0  0  2  0  0  0  0  0  0
  149.4100  109.8000   96.4450 C   0  0  0  0  0  2  0  0  0  0  0  0
  148.3730  108.8530   97.0940 C   0  0  0  0  0  2  0  0  0  0  0  0
  147.2730  108.4330   96.1050 C   0  0  0  0  0  2  0  0  0  0  0  0
  146.7380  107.0090   96.3970 C   0  0  0  0  0  2  0  0  0  0  0  0
  138.1520  103.5920   96.9820 C   0  0  0  0  0  2  0  0  0  0  0  0
  144.6320   97.4790   98.5960 Cl  0  0  0  0  0  0  0  0  0  0  0  0
  140.5740  100.1020   97.1010 N   0  0  0  0  0  2  0  0  0  0  0  0
  142.6190  102.5430   94.4690 N   0  0  0  0  0  2  0  0  0  0  0  0
  148.6550  111.9490   98.7300 N   0  0  0  0  0  2  0  0  0  0  0  0
  150.4760  112.7510   97.6370 O   0  0  0  0  0  1  0  0  0  0  0  0
  145.4150  108.8280  102.3300 O   0  0  0  0  0  1  0  0  0  0  0  0
  144.7180  111.3910  102.4230 O   0  0  0  0  0  0  0  0  0  0  0  0
  1  2  1  0
  1  6  1  0
  2  3  1  0
  2 36  1  0
  3  4  1  0
  4  5  1  0
  5  6  1  0
  5  9  1  0
  6 37  1  0
  7  8  1  0
  7 13  1  0
  7 37  1  0
  8  9  1  0
  8 10  1  0
  9 38  1  0
 10 11  1  0
 10 14  1  0
 11 12  1  0
 12 13  1  0
 12 35  1  0
 14 15  1  0
 15 16  1  0
 15 35  1  0
 17 18  1  0
 17 38  1  0
 18 19  1  0
 19 20  1  0
 20 34  1  0
 21 30  1  0
 21 39  1  0
 21 40  1  0
 22 23  1  0
 22 39  1  0
 23 24  1  0
 23 28  1  0
 24 25  1  0
 25 26  1  0
 25 42  1  0
 26 27  1  0
 26 41  1  0
 27 28  1  0
 29 42  1  0
 30 31  1  0
 31 32  1  0
 32 33  1  0
 33 34  1  0
M  END
$$$$
