2dsc_A_APR_402
     RDKit          3D

 36 41  0  0  0  0  0  0  0  0999 V2000
  -23.3910   21.6520   78.5890 C   0  0  0  0  0  3  0  0  0  0  0  0
  -19.6140   18.7700   70.0060 C   0  0  0  0  0  3  0  0  0  0  0  0
  -20.0560   24.7890   79.2520 C   0  0  0  0  0  2  0  0  0  0  0  0
  -24.0910   22.7670   77.7960 C   0  0  0  0  0  3  0  0  0  0  0  0
  -19.2600   18.2720   71.4270 C   0  0  0  0  0  3  0  0  0  0  0  0
  -24.4520   22.0110   76.5180 C   0  0  0  0  0  3  0  0  0  0  0  0
  -19.8010   16.8250   71.3790 C   0  0  0  0  0  3  0  0  0  0  0  0
  -21.0430   22.5830   78.4630 C   0  0  0  0  0  3  0  0  0  0  0  0
  -24.9490   20.6910   77.0880 C   0  0  0  0  0  3  0  0  0  0  0  0
  -21.0190   16.9060   70.4570 C   0  0  0  0  0  3  0  0  0  0  0  0
  -19.8080   22.1500   77.9690 C   0  0  0  0  0  3  0  0  0  0  0  0
  -24.8840   19.5320   76.0670 C   0  0  0  0  0  2  0  0  0  0  0  0
  -22.2880   17.1220   71.2450 C   0  0  0  0  0  3  0  0  0  0  0  0
  -18.6800   22.9770   78.0850 C   0  0  0  0  0  3  0  0  0  0  0  0
  -21.2780   20.6050   77.6060 C   0  0  0  0  0  2  0  0  0  0  0  0
  -18.7840   24.2420   78.6970 N   0  0  0  0  0  2  0  0  0  0  0  0
  -21.1870   23.8490   79.0850 N   0  0  0  0  0  2  0  0  0  0  0  0
  -17.4980   22.5750   77.6180 N   0  0  0  0  0  1  0  0  0  0  0  0
  -19.9990   20.9260   77.4490 N   0  0  0  0  0  2  0  0  0  0  0  0
  -21.9290   21.6040   78.2200 N   0  0  0  0  0  0  0  0  0  0  0  0
  -26.5850   19.1340   72.5870 O   0  0  0  0  0  1  0  0  0  0  0  0
  -22.8040   20.5420   72.8280 O   0  0  0  0  0  1  0  0  0  0  0  0
  -18.6140   18.4460   69.0190 O   0  0  0  0  0  1  0  0  0  0  0  0
  -25.2300   23.2320   78.5380 O   0  0  0  0  0  1  0  0  0  0  0  0
  -26.2210   17.3920   74.3340 O   0  0  0  0  0  1  0  0  0  0  0  0
  -24.1470   19.4480   70.9980 O   0  0  0  0  0  1  0  0  0  0  0  0
  -17.8450   18.4000   71.7020 O   0  0  0  0  0  1  0  0  0  0  0  0
  -25.4620   22.7130   75.8080 O   0  0  0  0  0  1  0  0  0  0  0  0
  -24.1820   18.4480   73.3240 O   0  0  0  0  0  0  0  0  0  0  0  0
  -18.8260   15.9030   70.8340 O   0  0  0  0  0  1  0  0  0  0  0  0
  -24.0900   20.4290   78.2150 O   0  0  0  0  0  0  0  0  0  0  0  0
  -20.8450   18.1000   69.6270 O   0  0  0  0  0  0  0  0  0  0  0  0
  -25.6930   19.7790   74.8900 O   0  0  0  0  0  0  0  0  0  0  0  0
  -22.1080   18.3130   71.9940 O   0  0  0  0  0  0  0  0  0  0  0  0
  -25.7470   18.6560   73.7190 P   0  0  0  0  0  5  0  0  0  0  0  0
  -23.3260   19.3010   72.2400 Pb  0  0  0  0  0  6  0  0  0  0  0  0
  1  4  1  0
  1 20  1  0
  1 31  1  0
  2  5  1  0
  2 23  1  0
  2 32  1  0
  3 16  1  0
  3 17  1  0
  4  6  1  0
  4 24  1  0
  5  7  1  0
  5 27  1  0
  6  9  1  0
  6 28  1  0
  7 10  1  0
  7 30  1  0
  8 11  1  0
  8 17  1  0
  8 20  1  0
  9 12  1  0
  9 31  1  0
 10 13  1  0
 10 32  1  0
 11 14  1  0
 11 19  1  0
 12 33  1  0
 13 34  1  0
 13 36  1  0
 14 16  1  0
 14 18  1  0
 15 19  1  0
 15 20  1  0
 21 35  1  0
 22 36  1  0
 25 35  1  0
 26 36  1  0
 29 35  1  0
 29 36  1  0
 33 35  1  0
 34 36  1  0
 35 36  1  0
M  END
$$$$
