3aca_B_8DD_209
     RDKit          3D

 27 30  0  0  0  0  0  0  0  0999 V2000
  -20.9850   19.2400   76.7930 C   0  0  0  0  0  3  0  0  0  0  0  0
  -18.1880   22.2600   78.1330 C   0  0  0  0  0  2  0  0  0  0  0  0
  -22.1920   18.3310   76.6380 C   0  0  0  0  0  2  0  0  0  0  0  0
  -21.9210   17.6430   75.3050 C   0  0  0  0  0  3  0  0  0  0  0  0
  -20.1800   21.3430   77.9320 C   0  0  0  0  0  3  0  0  0  0  0  0
  -21.2490   18.7510   74.5050 C   0  0  0  0  0  3  0  0  0  0  0  0
  -20.7840   22.3500   78.6560 C   0  0  0  0  0  3  0  0  0  0  0  0
  -22.2220   19.5710   73.6880 C   0  0  0  0  0  2  0  0  0  0  0  0
  -19.9490   23.3790   79.1340 C   0  0  0  0  0  3  0  0  0  0  0  0
  -22.3410   20.9980   78.1090 C   0  0  0  0  0  3  0  0  0  0  0  0
  -18.6320   23.2990   78.8500 N   0  0  0  0  0  2  0  0  0  0  0  0
  -18.8760   21.2370   77.6320 N   0  0  0  0  0  2  0  0  0  0  0  0
  -20.3950   24.4160   79.8490 N   0  0  0  0  0  1  0  0  0  0  0  0
  -22.1450   22.1220   78.7610 N   0  0  0  0  0  2  0  0  0  0  0  0
  -21.1870   20.4740   77.5810 N   0  0  0  0  0  0  0  0  0  0  0  0
  -23.0750   16.6610   72.3060 O   0  0  0  0  0  1  0  0  0  0  0  0
  -25.7620   16.6260   74.3110 O   0  0  0  0  0  1  0  0  0  0  0  0
  -23.9030   18.3260   70.5520 O   0  0  0  0  0  1  0  0  0  0  0  0
  -26.7770   17.9290   72.2930 O   0  0  0  0  0  1  0  0  0  0  0  0
  -20.9960   16.5760   75.4830 O   0  0  0  0  0  1  0  0  0  0  0  0
  -24.5770   18.5850   73.0070 O   0  0  0  0  0  0  0  0  0  0  0  0
  -26.5070   18.9910   74.3660 O   0  0  0  0  0  1  0  0  0  0  0  0
  -20.5970   19.5990   75.4760 O   0  0  0  0  0  0  0  0  0  0  0  0
  -22.2940   19.0530   72.3480 O   0  0  0  0  0  0  0  0  0  0  0  0
  -23.4390   20.4850   77.9930 O   0  0  0  0  0  1  0  0  0  0  0  0
  -23.4580   18.0480   71.9490 P   0  0  0  0  0  5  0  0  0  0  0  0
  -25.9590   17.9560   73.4770 Pb  0  0  0  0  0  5  0  0  0  0  0  0
  1  3  1  0
  1 15  1  0
  1 23  1  0
  2 11  1  0
  2 12  1  0
  3  4  1  0
  4  6  1  0
  4 20  1  0
  5  7  1  0
  5 12  1  0
  5 15  1  0
  6  8  1  0
  6 23  1  0
  7  9  1  0
  7 14  1  0
  8 24  1  0
  9 11  1  0
  9 13  1  0
 10 14  1  0
 10 15  1  0
 10 25  1  0
 16 26  1  0
 17 27  1  0
 18 26  1  0
 19 27  1  0
 21 26  1  0
 21 27  1  0
 22 27  1  0
 24 26  1  0
 26 27  1  0
M  END
$$$$
