3bm4_B_ADV_402
     RDKit          3D

 36 40  0  0  0  0  0  0  0  0999 V2000
  -23.4600   21.7290   78.1720 C   0  0  0  0  0  3  0  0  0  0  0  0
  -20.0590   24.5510   78.5380 C   0  0  0  0  0  2  0  0  0  0  0  0
  -24.2850   22.7790   77.4280 C   0  0  0  0  0  3  0  0  0  0  0  0
  -24.4350   22.0490   76.0960 C   0  0  0  0  0  3  0  0  0  0  0  0
  -21.1600   22.6470   77.8240 C   0  0  0  0  0  3  0  0  0  0  0  0
  -24.8470   20.6760   76.6270 C   0  0  0  0  0  3  0  0  0  0  0  0
  -20.0060   22.2250   77.1800 C   0  0  0  0  0  3  0  0  0  0  0  0
  -24.5790   19.5640   75.6110 C   0  0  0  0  0  2  0  0  0  0  0  0
  -18.8770   23.0290   77.2510 C   0  0  0  0  0  3  0  0  0  0  0  0
  -21.5420   20.7470   76.8860 C   0  0  0  0  0  2  0  0  0  0  0  0
  -19.8110   18.6320   69.3360 C   0  0  0  0  0  3  0  0  0  0  0  0
  -19.3850   18.1250   70.7180 C   0  0  0  0  0  3  0  0  0  0  0  0
  -19.6300   16.6210   70.6200 C   0  0  0  0  0  3  0  0  0  0  0  0
  -20.8460   16.6020   69.6940 C   0  0  0  0  0  3  0  0  0  0  0  0
  -22.0840   17.1340   70.4200 C   0  0  0  0  0  3  0  0  0  0  0  0
  -23.6480   18.2900   72.8850 C   0  0  0  0  0  2  0  0  0  0  0  0
  -18.9420   24.1790   77.9380 N   0  0  0  0  0  2  0  0  0  0  0  0
  -21.1520   23.8110   78.4900 N   0  0  0  0  0  2  0  0  0  0  0  0
  -17.7480   22.6660   76.6490 N   0  0  0  0  0  1  0  0  0  0  0  0
  -20.2760   21.0530   76.6110 N   0  0  0  0  0  2  0  0  0  0  0  0
  -22.0840   21.7130   77.6260 N   0  0  0  0  0  0  0  0  0  0  0  0
  -26.0610   19.1210   72.0860 O   0  0  0  0  0  1  0  0  0  0  0  0
  -22.5990   20.5950   71.9830 O   0  0  0  0  0  1  0  0  0  0  0  0
  -25.5630   22.9090   78.0580 O   0  0  0  0  0  1  0  0  0  0  0  0
  -25.9250   17.3930   73.9410 O   0  0  0  0  0  1  0  0  0  0  0  0
  -24.1730   19.3200   70.4440 O   0  0  0  0  0  1  0  0  0  0  0  0
  -25.5230   22.6190   75.3630 O   0  0  0  0  0  1  0  0  0  0  0  0
  -24.1060   20.4850   77.8460 O   0  0  0  0  0  0  0  0  0  0  0  0
  -25.2730   19.7940   74.3810 O   0  0  0  0  0  0  0  0  0  0  0  0
  -18.6690   19.0630   68.5900 O   0  0  0  0  0  1  0  0  0  0  0  0
  -17.9910   18.3710   70.9160 O   0  0  0  0  0  1  0  0  0  0  0  0
  -18.5470   15.9850   69.9360 O   0  0  0  0  0  1  0  0  0  0  0  0
  -20.4390   17.5220   68.6690 O   0  0  0  0  0  0  0  0  0  0  0  0
  -21.8790   18.4630   70.9050 O   0  0  0  0  0  0  0  0  0  0  0  0
  -25.3810   18.6090   73.2960 P   0  0  0  0  0  4  0  0  0  0  0  0
  -23.1220   19.3040   71.4830 Pb  0  0  0  0  0  5  0  0  0  0  0  0
  1  3  1  0
  1 21  1  0
  1 28  1  0
  2 17  1  0
  2 18  1  0
  3  4  1  0
  3 24  1  0
  4  6  1  0
  4 27  1  0
  5  7  1  0
  5 18  1  0
  5 21  1  0
  6  8  1  0
  6 28  1  0
  7  9  1  0
  7 20  1  0
  8 29  1  0
  9 17  1  0
  9 19  1  0
 10 20  1  0
 10 21  1  0
 11 12  1  0
 11 30  1  0
 11 33  1  0
 12 13  1  0
 12 31  1  0
 13 14  1  0
 13 32  1  0
 14 15  1  0
 14 33  1  0
 15 34  1  0
 15 36  1  0
 16 35  1  0
 16 36  1  0
 22 35  1  0
 23 36  1  0
 25 35  1  0
 26 36  1  0
 29 35  1  0
 34 36  1  0
M  END
$$$$
