3bm4_B_ADV_401
     RDKit          3D

 36 41  0  0  0  0  0  0  0  0999 V2000
    3.7590   17.3230   69.5460 C   0  0  0  0  0  3  0  0  0  0  0  0
    1.9800   16.7110   73.5570 C   0  0  0  0  0  2  0  0  0  0  0  0
    4.0960   15.8460   69.3310 C   0  0  0  0  0  3  0  0  0  0  0  0
    3.2600   15.6020   68.0780 C   0  0  0  0  0  3  0  0  0  0  0  0
    1.9830   17.2080   71.3000 C   0  0  0  0  0  3  0  0  0  0  0  0
    3.7030   16.8230   67.2720 C   0  0  0  0  0  3  0  0  0  0  0  0
    0.6120   17.4180   71.3450 C   0  0  0  0  0  3  0  0  0  0  0  0
    2.7130   17.1590   66.1550 C   0  0  0  0  0  2  0  0  0  0  0  0
   -0.0410   17.2560   72.5600 C   0  0  0  0  0  3  0  0  0  0  0  0
    1.2970   17.7610   69.3350 C   0  0  0  0  0  2  0  0  0  0  0  0
   -5.0600   15.6630   65.5170 C   0  0  0  0  0  3  0  0  0  0  0  0
   -5.4230   17.1350   65.7070 C   0  0  0  0  0  3  0  0  0  0  0  0
   -4.4990   17.7410   64.6510 C   0  0  0  0  0  3  0  0  0  0  0  0
   -4.4090   16.6520   63.5780 C   0  0  0  0  0  3  0  0  0  0  0  0
   -2.9460   16.2280   63.4370 C   0  0  0  0  0  3  0  0  0  0  0  0
    0.0370   16.6660   64.4340 C   0  0  0  0  0  2  0  0  0  0  0  0
    0.6730   16.9050   73.6370 N   0  0  0  0  0  2  0  0  0  0  0  0
    2.6330   16.8570   72.4190 N   0  0  0  0  0  2  0  0  0  0  0  0
   -1.3530   17.4570   72.6540 N   0  0  0  0  0  1  0  0  0  0  0  0
    0.2220   17.7560   70.1200 N   0  0  0  0  0  2  0  0  0  0  0  0
    2.3710   17.4290   70.0480 N   0  0  0  0  0  0  0  0  0  0  0  0
    1.6630   14.9570   63.1750 O   0  0  0  0  0  1  0  0  0  0  0  0
   -0.6780   14.7110   66.1320 O   0  0  0  0  0  1  0  0  0  0  0  0
    5.4840   15.7060   69.0180 O   0  0  0  0  0  1  0  0  0  0  0  0
    2.2860   17.4190   63.2170 O   0  0  0  0  0  1  0  0  0  0  0  0
   -0.7490   14.2060   63.6420 O   0  0  0  0  0  1  0  0  0  0  0  0
    3.7170   14.4130   67.4290 O   0  0  0  0  0  1  0  0  0  0  0  0
    3.8110   17.8960   68.2260 O   0  0  0  0  0  0  0  0  0  0  0  0
    2.4770   16.0290   65.3100 O   0  0  0  0  0  0  0  0  0  0  0  0
   -6.0290   14.8220   66.1490 O   0  0  0  0  0  1  0  0  0  0  0  0
   -6.7830   17.3510   65.3220 O   0  0  0  0  0  1  0  0  0  0  0  0
   -5.0350   18.9590   64.1270 O   0  0  0  0  0  1  0  0  0  0  0  0
   -5.1820   15.5530   64.0910 O   0  0  0  0  0  0  0  0  0  0  0  0
   -2.4370   15.7320   64.6780 O   0  0  0  0  0  0  0  0  0  0  0  0
    1.7150   16.2420   63.9080 P   0  0  0  0  0  5  0  0  0  0  0  0
   -0.9310   15.1710   64.7480 Pb  0  0  0  0  0  6  0  0  0  0  0  0
  1  3  1  0
  1 21  1  0
  1 28  1  0
  2 17  1  0
  2 18  1  0
  3  4  1  0
  3 24  1  0
  4  6  1  0
  4 27  1  0
  5  7  1  0
  5 18  1  0
  5 21  1  0
  6  8  1  0
  6 28  1  0
  7  9  1  0
  7 20  1  0
  8 29  1  0
  9 17  1  0
  9 19  1  0
 10 20  1  0
 10 21  1  0
 11 12  1  0
 11 30  1  0
 11 33  1  0
 12 13  1  0
 12 31  1  0
 13 14  1  0
 13 32  1  0
 14 15  1  0
 14 33  1  0
 15 34  1  0
 15 36  1  0
 16 35  1  0
 16 36  1  0
 22 35  1  0
 23 36  1  0
 25 35  1  0
 26 36  1  0
 29 35  1  0
 34 36  1  0
 35 36  1  0
M  END
$$$$
