5qj7_D_JMM_303
     RDKit          3D

 18 20  0  0  0  0  0  0  0  0999 V2000
  -23.7010   24.8340  -57.2930 C   0  0  0  0  0  2  0  0  0  0  0  0
  -23.2210   26.1680  -57.0940 C   0  0  0  0  0  2  0  0  0  0  0  0
  -23.0200   26.6800  -58.3200 C   0  0  0  0  0  3  0  0  0  0  0  0
  -23.7410   24.6350  -58.6180 C   0  0  0  0  0  2  0  0  0  0  0  0
  -22.5860   27.9810  -58.8610 C   0  0  0  0  0  3  0  0  0  0  0  0
  -21.7780   30.3750  -58.7340 C   0  0  0  0  0  2  0  0  0  0  0  0
  -22.1840   31.7570  -58.1270 C   0  0  0  0  0  2  0  0  0  0  0  0
  -22.0120   30.5490  -55.9880 C   0  0  0  0  0  2  0  0  0  0  0  0
  -22.4370   29.1820  -56.6030 C   0  0  0  0  0  2  0  0  0  0  0  0
  -22.9550   32.9260  -55.9570 C   0  0  0  0  0  3  0  0  0  0  0  0
  -22.6080   34.3020  -56.4940 C   0  0  0  0  0  3  0  0  0  0  0  0
  -23.7150   35.3480  -56.4330 C   0  0  0  0  0  2  0  0  0  0  0  0
  -22.5430   35.4580  -55.4930 C   0  0  0  0  0  2  0  0  0  0  0  0
  -22.3860   29.1690  -58.0880 N   0  0  0  0  0  0  0  0  0  0  0  0
  -22.6290   31.7010  -56.7050 N   0  0  0  0  0  0  0  0  0  0  0  0
  -23.3290   25.7490  -59.2700 O   0  0  0  0  0  0  0  0  0  0  0  0
  -22.4150   28.0010  -60.0620 O   0  0  0  0  0  1  0  0  0  0  0  0
  -23.5440   32.8250  -54.8670 O   0  0  0  0  0  1  0  0  0  0  0  0
  1  2  1  0
  1  4  1  0
  2  3  1  0
  3  5  1  0
  3 16  1  0
  4 16  1  0
  5 14  1  0
  5 17  1  0
  6  7  1  0
  6 14  1  0
  7 15  1  0
  8  9  1  0
  8 15  1  0
  9 14  1  0
 10 11  1  0
 10 15  1  0
 10 18  1  0
 11 12  1  0
 11 13  1  0
 12 13  1  0
M  END
$$$$
