5qj8_B_ELQ_305
     RDKit          3D

 17 18  0  0  0  0  0  0  0  0999 V2000
  -19.3640  -19.1460   -5.7230 C   0  0  0  0  0  1  0  0  0  0  0  0
  -19.9780  -17.9110   -3.6400 C   0  0  0  0  0  2  0  0  0  0  0  0
  -20.2750  -16.4450   -3.2280 C   0  0  0  0  0  2  0  0  0  0  0  0
  -19.0680  -15.9050   -5.3530 C   0  0  0  0  0  2  0  0  0  0  0  0
  -20.2140  -16.7920   -5.9080 C   0  0  0  0  0  2  0  0  0  0  0  0
  -18.3850  -14.7380   -3.1440 C   0  0  0  0  0  3  0  0  0  0  0  0
  -17.1340  -14.0920   -3.6890 C   0  0  0  0  0  3  0  0  0  0  0  0
  -16.1240  -14.7870   -4.4070 C   0  0  0  0  0  2  0  0  0  0  0  0
  -14.8980  -14.1550   -4.6970 C   0  0  0  0  0  2  0  0  0  0  0  0
  -14.6800  -12.8320   -4.2510 C   0  0  0  0  0  3  0  0  0  0  0  0
  -15.7070  -12.1480   -3.5830 C   0  0  0  0  0  3  0  0  0  0  0  0
  -16.9360  -12.7630   -3.3060 C   0  0  0  0  0  2  0  0  0  0  0  0
  -15.4860  -10.9150   -3.2190 F   0  0  0  0  0  0  0  0  0  0  0  0
  -13.4990  -12.2220   -4.3600 F   0  0  0  0  0  0  0  0  0  0  0  0
  -20.2570  -18.0960   -5.1170 N   0  0  0  0  0  0  0  0  0  0  0  0
  -19.3360  -15.4890   -3.9400 N   0  0  0  0  0  0  0  0  0  0  0  0
  -18.5800  -14.5870   -1.9400 O   0  0  0  0  0  1  0  0  0  0  0  0
  1 15  1  0
  2  3  1  0
  2 15  1  0
  3 16  1  0
  4  5  1  0
  4 16  1  0
  5 15  1  0
  6  7  1  0
  6 16  1  0
  6 17  1  0
  7  8  1  0
  7 12  1  0
  8  9  1  0
  9 10  1  0
 10 11  1  0
 10 14  1  0
 11 12  1  0
 11 13  1  0
M  END
$$$$
