5qja_D_K0A_303
     RDKit          3D

 14 15  0  0  0  0  0  0  0  0999 V2000
  -23.8490   24.0710  -58.3800 C   0  0  0  0  0  1  0  0  0  0  0  0
  -23.5040   25.3410  -57.7570 C   0  0  0  0  0  3  0  0  0  0  0  0
  -23.1820   26.9170  -56.2310 C   0  0  0  0  0  3  0  0  0  0  0  0
  -23.1660   27.4060  -54.8030 C   0  0  0  0  0  3  0  0  0  0  0  0
  -20.7280   28.3240  -54.8890 C   0  0  0  0  0  2  0  0  0  0  0  0
  -19.7770   28.3830  -53.6840 C   0  0  0  0  0  2  0  0  0  0  0  0
  -20.6150   29.0350  -52.5670 C   0  0  0  0  0  2  0  0  0  0  0  0
  -22.0880   28.7160  -52.9170 C   0  0  0  0  0  2  0  0  0  0  0  0
  -22.8950   27.6490  -57.3670 C   0  0  0  0  0  3  0  0  0  0  0  0
  -22.5550   29.0690  -57.4930 C   0  0  0  0  0  1  0  0  0  0  0  0
  -23.5370   25.5810  -56.4650 N   0  0  0  0  0  2  0  0  0  0  0  0
  -22.0480   28.0800  -54.2660 N   0  0  0  0  0  0  0  0  0  0  0  0
  -24.1500   27.1350  -54.0750 O   0  0  0  0  0  1  0  0  0  0  0  0
  -23.0450   26.6740  -58.7530 S   0  0  0  0  0  0  0  0  0  0  0  0
  1  2  1  0
  2 11  1  0
  2 14  1  0
  3  4  1  0
  3  9  1  0
  3 11  1  0
  4 12  1  0
  4 13  1  0
  5  6  1  0
  5 12  1  0
  6  7  1  0
  7  8  1  0
  8 12  1  0
  9 10  1  0
  9 14  1  0
M  END
$$$$
