5qja_B_K0A_304
     RDKit          3D

 14 15  0  0  0  0  0  0  0  0999 V2000
  -14.2350  -11.2220   -3.5410 C   0  0  0  0  0  1  0  0  0  0  0  0
  -15.1170  -12.2200   -4.0890 C   0  0  0  0  0  3  0  0  0  0  0  0
  -15.9390  -13.6850   -5.4970 C   0  0  0  0  0  3  0  0  0  0  0  0
  -15.9410  -14.3040   -6.8270 C   0  0  0  0  0  3  0  0  0  0  0  0
  -15.6560  -16.6860   -5.9360 C   0  0  0  0  0  2  0  0  0  0  0  0
  -15.1710  -17.9240   -6.6970 C   0  0  0  0  0  2  0  0  0  0  0  0
  -15.4200  -17.6750   -8.1870 C   0  0  0  0  0  2  0  0  0  0  0  0
  -16.1420  -16.3190   -8.2940 C   0  0  0  0  0  2  0  0  0  0  0  0
  -16.8460  -13.8720   -4.4690 C   0  0  0  0  0  3  0  0  0  0  0  0
  -17.9810  -14.7990   -4.4000 C   0  0  0  0  0  1  0  0  0  0  0  0
  -14.9500  -12.7400   -5.2630 N   0  0  0  0  0  2  0  0  0  0  0  0
  -15.8880  -15.6700   -6.9840 N   0  0  0  0  0  0  0  0  0  0  0  0
  -15.8760  -13.5450   -7.8100 O   0  0  0  0  0  1  0  0  0  0  0  0
  -16.4680  -12.8220   -3.1690 S   0  0  0  0  0  0  0  0  0  0  0  0
  1  2  1  0
  2 11  1  0
  2 14  1  0
  3  4  1  0
  3  9  1  0
  3 11  1  0
  4 12  1  0
  4 13  1  0
  5  6  1  0
  5 12  1  0
  6  7  1  0
  7  8  1  0
  8 12  1  0
  9 10  1  0
  9 14  1  0
M  END
$$$$
