5qja_D_K0A_304
     RDKit          3D

 14 15  0  0  0  0  0  0  0  0999 V2000
  -28.2250    9.6620  -62.7210 C   0  0  0  0  0  1  0  0  0  0  0  0
  -28.7800    8.3410  -63.0220 C   0  0  0  0  0  3  0  0  0  0  0  0
  -30.2090    6.6440  -63.2350 C   0  0  0  0  0  3  0  0  0  0  0  0
  -31.5370    5.9890  -63.0300 C   0  0  0  0  0  3  0  0  0  0  0  0
  -33.5920    4.6770  -63.8720 C   0  0  0  0  0  2  0  0  0  0  0  0
  -33.9370    4.0830  -65.2570 C   0  0  0  0  0  2  0  0  0  0  0  0
  -33.2420    5.0310  -66.2250 C   0  0  0  0  0  2  0  0  0  0  0  0
  -31.9020    5.3560  -65.5130 C   0  0  0  0  0  2  0  0  0  0  0  0
  -29.0760    6.0290  -63.7190 C   0  0  0  0  0  3  0  0  0  0  0  0
  -28.9650    4.6300  -64.2220 C   0  0  0  0  0  1  0  0  0  0  0  0
  -30.0470    7.9770  -62.8350 N   0  0  0  0  0  2  0  0  0  0  0  0
  -32.2750    5.3590  -64.0630 N   0  0  0  0  0  0  0  0  0  0  0  0
  -32.0370    6.0430  -61.8910 O   0  0  0  0  0  1  0  0  0  0  0  0
  -27.7180    7.1200  -63.6790 S   0  0  0  0  0  0  0  0  0  0  0  0
  1  2  1  0
  2 11  1  0
  2 14  1  0
  3  4  1  0
  3  9  1  0
  3 11  1  0
  4 12  1  0
  4 13  1  0
  5  6  1  0
  5 12  1  0
  6  7  1  0
  7  8  1  0
  8 12  1  0
  9 10  1  0
  9 14  1  0
M  END
$$$$
