5qje_D_K0P_303
     RDKit          3D

 17 18  0  0  0  0  0  0  0  0999 V2000
  -29.8920    0.0620  -60.7650 C   0  0  0  0  0  1  0  0  0  0  0  0
  -30.1250   -0.5100  -62.1760 C   0  0  0  0  0  2  0  0  0  0  0  0
  -26.9150    6.6830  -64.1530 C   0  0  0  0  0  2  0  0  0  0  0  0
  -30.7410    2.2640  -64.3830 C   0  0  0  0  0  2  0  0  0  0  0  0
  -28.9640    0.9550  -63.9100 C   0  0  0  0  0  2  0  0  0  0  0  0
  -29.3630    2.0390  -64.6750 C   0  0  0  0  0  3  0  0  0  0  0  0
  -28.5250    2.8250  -65.5900 C   0  0  0  0  0  2  0  0  0  0  0  0
  -28.8650    5.1900  -64.7900 C   0  0  0  0  0  3  0  0  0  0  0  0
  -28.3170    6.4210  -64.1370 C   0  0  0  0  0  3  0  0  0  0  0  0
  -29.1710    7.4180  -63.6050 C   0  0  0  0  0  2  0  0  0  0  0  0
  -28.6010    8.6210  -63.1610 C   0  0  0  0  0  2  0  0  0  0  0  0
  -27.2170    8.7900  -63.2460 C   0  0  0  0  0  2  0  0  0  0  0  0
  -30.0770    0.5750  -63.1810 N   0  0  0  0  0  0  0  0  0  0  0  0
  -28.0530    4.0630  -64.9350 N   0  0  0  0  0  2  0  0  0  0  0  0
  -26.3720    7.8430  -63.7180 N   0  0  0  0  0  2  0  0  0  0  0  0
  -31.1670    1.3580  -63.4600 N   0  0  0  0  0  2  0  0  0  0  0  0
  -30.0280    5.1890  -65.2060 O   0  0  0  0  0  1  0  0  0  0  0  0
  1  2  1  0
  2 13  1  0
  3  9  1  0
  3 15  1  0
  4  6  1  0
  4 16  1  0
  5  6  1  0
  5 13  1  0
  6  7  1  0
  7 14  1  0
  8  9  1  0
  8 14  1  0
  8 17  1  0
  9 10  1  0
 10 11  1  0
 11 12  1  0
 12 15  1  0
 13 16  1  0
M  END
$$$$
