5qjg_C_K0V_304
     RDKit          3D

 17 17  0  0  0  0  0  0  0  0999 V2000
  -27.2110    9.1860  -63.0650 C   0  0  0  0  0  1  0  0  0  0  0  0
  -27.1210    6.9050  -63.9050 C   0  0  0  0  0  3  0  0  0  0  0  0
  -29.3180   -0.2630  -61.0720 C   0  0  0  0  0  1  0  0  0  0  0  0
  -28.2220   -1.5990  -62.9320 C   0  0  0  0  0  1  0  0  0  0  0  0
  -27.9890    5.7080  -64.3680 C   0  0  0  0  0  3  0  0  0  0  0  0
  -29.2620    5.5160  -63.5270 C   0  0  0  0  0  2  0  0  0  0  0  0
  -30.0830    4.3610  -64.1520 C   0  0  0  0  0  2  0  0  0  0  0  0
  -27.9930    3.2270  -64.9540 C   0  0  0  0  0  2  0  0  0  0  0  0
  -27.1490    4.4000  -64.3950 C   0  0  0  0  0  2  0  0  0  0  0  0
  -29.7020    1.9340  -63.3960 C   0  0  0  0  0  3  0  0  0  0  0  0
  -29.2470   -0.4690  -62.6020 C   0  0  0  0  0  0  0  0  0  0  0  0
  -30.6470   -0.9110  -63.1100 C   0  0  0  0  0  1  0  0  0  0  0  0
  -29.3330    3.0620  -64.3110 N   0  0  0  0  0  0  0  0  0  0  0  0
  -28.8440    0.8040  -63.2770 N   0  0  0  0  0  2  0  0  0  0  0  0
  -27.8490    7.9930  -63.5090 O   0  0  0  0  0  0  0  0  0  0  0  0
  -25.9000    6.9370  -63.9170 O   0  0  0  0  0  1  0  0  0  0  0  0
  -30.7520    1.9960  -62.7510 O   0  0  0  0  0  1  0  0  0  0  0  0
  1 15  1  0
  2  5  1  0
  2 15  1  0
  2 16  1  0
  3 11  1  0
  4 11  1  0
  5  6  1  0
  5  9  1  0
  6  7  1  0
  7 13  1  0
  8  9  1  0
  8 13  1  0
 10 13  1  0
 10 14  1  0
 10 17  1  0
 11 12  1  0
 11 14  1  0
M  END
$$$$
