5qjj_D_6SU_303
     RDKit          3D

 15 15  0  0  0  0  0  0  0  0999 V2000
  -23.1050   25.3040  -58.4120 C   0  0  0  0  0  1  0  0  0  0  0  0
  -22.5090   27.7110  -58.2260 C   0  0  0  0  0  3  0  0  0  0  0  0
  -22.3200   28.9170  -57.3340 C   0  0  0  0  0  3  0  0  0  0  0  0
  -22.4010   28.7220  -55.9290 C   0  0  0  0  0  2  0  0  0  0  0  0
  -22.3270   29.8310  -55.0620 C   0  0  0  0  0  2  0  0  0  0  0  0
  -22.1680   31.1350  -55.5610 C   0  0  0  0  0  2  0  0  0  0  0  0
  -22.0680   31.3480  -56.9790 C   0  0  0  0  0  3  0  0  0  0  0  0
  -22.1420   30.2120  -57.8780 C   0  0  0  0  0  2  0  0  0  0  0  0
  -22.2460   35.0670  -58.4720 C   0  0  0  0  0  1  0  0  0  0  0  0
  -21.8650   32.6980  -57.4950 N   0  0  0  0  0  2  0  0  0  0  0  0
  -22.8860   26.4900  -57.6610 O   0  0  0  0  0  0  0  0  0  0  0  0
  -22.3610   27.7220  -59.4370 O   0  0  0  0  0  1  0  0  0  0  0  0
  -24.0590   34.0350  -57.0620 O   0  0  0  0  0  1  0  0  0  0  0  0
  -22.0640   34.7640  -55.9390 O   0  0  0  0  0  1  0  0  0  0  0  0
  -22.6530   34.1710  -57.0850 S   0  0  0  0  0  4  0  0  0  0  0  0
  1 11  1  0
  2  3  1  0
  2 11  1  0
  2 12  1  0
  3  4  1  0
  3  8  1  0
  4  5  1  0
  5  6  1  0
  6  7  1  0
  7  8  1  0
  7 10  1  0
  9 15  1  0
 10 15  1  0
 13 15  1  0
 14 15  1  0
M  END
$$$$
