5qjk_C_K1D_304
     RDKit          3D

 13 15  0  0  0  0  0  0  0  0999 V2000
  -32.5150    5.0250  -63.8040 C   0  0  0  0  0  2  0  0  0  0  0  0
  -31.7860    6.4040  -63.7380 C   0  0  0  0  0  2  0  0  0  0  0  0
  -31.1440    4.3540  -64.0810 C   0  0  0  0  0  2  0  0  0  0  0  0
  -29.1830    5.9780  -63.9010 C   0  0  0  0  0  3  0  0  0  0  0  0
  -26.9760    5.5120  -64.5150 C   0  0  0  0  0  2  0  0  0  0  0  0
  -27.3380    7.5850  -63.6720 C   0  0  0  0  0  3  0  0  0  0  0  0
  -28.3350    9.2940  -62.8100 C   0  0  0  0  0  2  0  0  0  0  0  0
  -28.7250    7.2400  -63.5220 C   0  0  0  0  0  3  0  0  0  0  0  0
  -30.5270    5.6280  -63.5790 N   0  0  0  0  0  0  0  0  0  0  0  0
  -28.3080    5.0890  -64.4220 N   0  0  0  0  0  2  0  0  0  0  0  0
  -26.4270    6.7040  -64.1730 N   0  0  0  0  0  2  0  0  0  0  0  0
  -27.1180    8.8840  -63.2150 N   0  0  0  0  0  2  0  0  0  0  0  0
  -29.3090    8.3170  -62.9720 N   0  0  0  0  0  2  0  0  0  0  0  0
  1  2  1  0
  1  3  1  0
  2  9  1  0
  3  9  1  0
  4  8  1  0
  4  9  1  0
  4 10  1  0
  5 10  1  0
  5 11  1  0
  6  8  1  0
  6 11  1  0
  6 12  1  0
  7 12  1  0
  7 13  1  0
  8 13  1  0
M  END
$$$$
