5qjl_D_JJM_303
     RDKit          3D

 18 20  0  0  0  0  0  0  0  0999 V2000
  -22.8050   32.8890  -52.5560 C   0  0  0  0  0  1  0  0  0  0  0  0
  -22.3240   33.0810  -53.9710 C   0  0  0  0  0  3  0  0  0  0  0  0
  -22.0430   34.3760  -54.5000 C   0  0  0  0  0  2  0  0  0  0  0  0
  -21.5720   34.4940  -55.8140 C   0  0  0  0  0  2  0  0  0  0  0  0
  -21.3870   33.3490  -56.6370 C   0  0  0  0  0  2  0  0  0  0  0  0
  -21.7000   32.0460  -56.1350 C   0  0  0  0  0  3  0  0  0  0  0  0
  -22.1520   31.9300  -54.7690 C   0  0  0  0  0  2  0  0  0  0  0  0
  -22.0160   29.5100  -56.7100 C   0  0  0  0  0  3  0  0  0  0  0  0
  -22.0800   28.5530  -57.7590 C   0  0  0  0  0  3  0  0  0  0  0  0
  -21.9150   28.4850  -59.1640 C   0  0  0  0  0  2  0  0  0  0  0  0
  -22.5020   27.2440  -57.3950 C   0  0  0  0  0  3  0  0  0  0  0  0
  -22.6760   27.8190  -55.2370 C   0  0  0  0  0  2  0  0  0  0  0  0
  -23.0400   25.1090  -58.5840 C   0  0  0  0  0  1  0  0  0  0  0  0
  -21.7330   30.8740  -56.9970 N   0  0  0  0  0  2  0  0  0  0  0  0
  -22.2140   27.2480  -59.6230 N   0  0  0  0  0  2  0  0  0  0  0  0
  -22.5790   26.5070  -58.5250 N   0  0  0  0  0  0  0  0  0  0  0  0
  -22.8190   26.8240  -56.1290 N   0  0  0  0  0  2  0  0  0  0  0  0
  -22.3050   29.1010  -55.4420 N   0  0  0  0  0  2  0  0  0  0  0  0
  1  2  1  0
  2  3  1  0
  2  7  1  0
  3  4  1  0
  4  5  1  0
  5  6  1  0
  6  7  1  0
  6 14  1  0
  8  9  1  0
  8 14  1  0
  8 18  1  0
  9 10  1  0
  9 11  1  0
 10 15  1  0
 11 16  1  0
 11 17  1  0
 12 17  1  0
 12 18  1  0
 13 16  1  0
 15 16  1  0
M  END
$$$$
