5qjm_D_K1G_303
     RDKit          3D

 15 16  0  0  0  0  0  0  0  0999 V2000
  -23.3900   33.2640  -55.8260 C   0  0  0  0  0  1  0  0  0  0  0  0
  -23.2360   31.7380  -55.4900 C   0  0  0  0  0  3  0  0  0  0  0  0
  -22.4810   31.5800  -54.1300 C   0  0  0  0  0  1  0  0  0  0  0  0
  -22.1130   31.4540  -57.9000 C   0  0  0  0  0  1  0  0  0  0  0  0
  -22.8750   29.4400  -56.4950 C   0  0  0  0  0  3  0  0  0  0  0  0
  -23.5040   27.6510  -55.0870 C   0  0  0  0  0  2  0  0  0  0  0  0
  -23.4150   27.2120  -57.2930 C   0  0  0  0  0  3  0  0  0  0  0  0
  -23.8900   25.1230  -58.5850 C   0  0  0  0  0  1  0  0  0  0  0  0
  -22.8040   28.5190  -59.0240 C   0  0  0  0  0  2  0  0  0  0  0  0
  -22.9900   28.5480  -57.6110 C   0  0  0  0  0  3  0  0  0  0  0  0
  -22.6060   30.8620  -56.5970 N   0  0  0  0  0  0  0  0  0  0  0  0
  -23.1260   28.9430  -55.2360 N   0  0  0  0  0  2  0  0  0  0  0  0
  -23.6940   26.7210  -56.0390 N   0  0  0  0  0  2  0  0  0  0  0  0
  -23.4700   26.5140  -58.4600 N   0  0  0  0  0  0  0  0  0  0  0  0
  -23.0930   27.3010  -59.5140 N   0  0  0  0  0  2  0  0  0  0  0  0
  1  2  1  0
  2  3  1  0
  2 11  1  0
  4 11  1  0
  5 10  1  0
  5 11  1  0
  5 12  1  0
  6 12  1  0
  6 13  1  0
  7 10  1  0
  7 13  1  0
  7 14  1  0
  8 14  1  0
  9 10  1  0
  9 15  1  0
 14 15  1  0
M  END
$$$$
