5qjo_C_K41_304
     RDKit          3D

 12 12  0  0  0  0  0  0  0  0999 V2000
  -22.7750   31.1640  -54.3600 C   0  0  0  0  0  1  0  0  0  0  0  0
  -21.6940   30.0810  -54.1710 C   0  0  0  0  0  3  0  0  0  0  0  0
  -21.4320   29.7400  -52.6650 C   0  0  0  0  0  1  0  0  0  0  0  0
  -22.1000   28.7890  -54.9470 C   0  0  0  0  0  3  0  0  0  0  0  0
  -22.2220   27.9430  -57.3100 C   0  0  0  0  0  3  0  0  0  0  0  0
  -23.1550   24.7320  -58.4090 C   0  0  0  0  0  1  0  0  0  0  0  0
  -21.9690   28.9140  -56.3650 N   0  0  0  0  0  2  0  0  0  0  0  0
  -22.1070   28.1080  -58.7260 N   0  0  0  0  0  2  0  0  0  0  0  0
  -22.4020   26.9840  -59.2470 N   0  0  0  0  0  2  0  0  0  0  0  0
  -22.7040   26.1080  -58.2480 N   0  0  0  0  0  0  0  0  0  0  0  0
  -22.5960   26.6550  -57.0320 N   0  0  0  0  0  2  0  0  0  0  0  0
  -22.5120   27.7620  -54.3940 O   0  0  0  0  0  1  0  0  0  0  0  0
  1  2  1  0
  2  3  1  0
  2  4  1  0
  4  7  1  0
  4 12  1  0
  5  7  1  0
  5  8  1  0
  5 11  1  0
  6 10  1  0
  8  9  1  0
  9 10  1  0
 10 11  1  0
M  END
$$$$
