5qjo_B_K41_304
     RDKit          3D

 12 12  0  0  0  0  0  0  0  0999 V2000
  -16.0380  -16.9270   -8.7600 C   0  0  0  0  0  1  0  0  0  0  0  0
  -17.1300  -16.5010   -7.7390 C   0  0  0  0  0  3  0  0  0  0  0  0
  -18.4170  -16.0410   -8.4470 C   0  0  0  0  0  1  0  0  0  0  0  0
  -16.5820  -15.3550   -6.8260 C   0  0  0  0  0  3  0  0  0  0  0  0
  -16.8520  -14.2900   -4.5940 C   0  0  0  0  0  3  0  0  0  0  0  0
  -14.9070  -11.6410   -3.3160 C   0  0  0  0  0  1  0  0  0  0  0  0
  -17.2010  -15.2390   -5.5430 N   0  0  0  0  0  2  0  0  0  0  0  0
  -17.4430  -14.1420   -3.3120 N   0  0  0  0  0  2  0  0  0  0  0  0
  -16.8340  -13.1740   -2.7510 N   0  0  0  0  0  2  0  0  0  0  0  0
  -15.8770  -12.6980   -3.5930 N   0  0  0  0  0  0  0  0  0  0  0  0
  -15.8460  -13.3480   -4.7630 N   0  0  0  0  0  2  0  0  0  0  0  0
  -15.6980  -14.5970   -7.1650 O   0  0  0  0  0  1  0  0  0  0  0  0
  1  2  1  0
  2  3  1  0
  2  4  1  0
  4  7  1  0
  4 12  1  0
  5  7  1  0
  5  8  1  0
  5 11  1  0
  6 10  1  0
  8  9  1  0
  9 10  1  0
 10 11  1  0
M  END
$$$$
