5qjp_B_K1P_305
     RDKit          3D

 13 14  0  0  0  0  0  0  0  0999 V2000
   -4.5690    0.3480    2.7440 C   0  0  0  0  0  1  0  0  0  0  0  0
   -3.4860    1.0880    3.4550 C   0  0  0  0  0  3  0  0  0  0  0  0
   -2.2440    2.9070    3.8960 C   0  0  0  0  0  3  0  0  0  0  0  0
   -2.7910    5.2970    3.8430 C   0  0  0  0  0  2  0  0  0  0  0  0
   -2.6580    6.1140    2.5410 C   0  0  0  0  0  2  0  0  0  0  0  0
   -1.3260    6.8940    2.3610 C   0  0  0  0  0  2  0  0  0  0  0  0
    0.3550    5.6670    3.8500 C   0  0  0  0  0  2  0  0  0  0  0  0
   -0.4810    4.5760    4.6110 C   0  0  0  0  0  2  0  0  0  0  0  0
   -2.7080    0.5070    4.3600 N   0  0  0  0  0  2  0  0  0  0  0  0
   -3.2700    2.4460    3.1370 N   0  0  0  0  0  2  0  0  0  0  0  0
   -1.7850    4.2080    3.9380 N   0  0  0  0  0  0  0  0  0  0  0  0
   -0.4520    6.8840    3.5670 N   0  0  0  0  0  2  0  0  0  0  0  0
   -1.5890    1.6220    4.9360 S   0  0  0  0  0  0  0  0  0  0  0  0
  1  2  1  0
  2  9  1  0
  2 10  1  0
  3 10  1  0
  3 11  1  0
  3 13  1  0
  4  5  1  0
  4 11  1  0
  5  6  1  0
  6 12  1  0
  7  8  1  0
  7 12  1  0
  8 11  1  0
  9 13  1  0
M  END
$$$$
