5qjr_A_K1V_304
     RDKit          3D

 12 12  0  0  0  0  0  0  0  0999 V2000
   -2.5860    7.0390    2.3910 C   0  0  0  0  0  1  0  0  0  0  0  0
   -3.3730    5.7720    2.6560 C   0  0  0  0  0  3  0  0  0  0  0  0
   -2.2540    5.2510    4.8960 C   0  0  0  0  0  2  0  0  0  0  0  0
   -1.0770    4.3090    5.2150 C   0  0  0  0  0  2  0  0  0  0  0  0
   -1.6510    2.9060    5.4500 C   0  0  0  0  0  2  0  0  0  0  0  0
   -2.4170    2.4200    4.1890 C   0  0  0  0  0  3  0  0  0  0  0  0
   -3.4490    3.4640    3.6800 C   0  0  0  0  0  2  0  0  0  0  0  0
   -3.2500    1.1610    4.4540 C   0  0  0  0  0  3  0  0  0  0  0  0
   -2.8770    4.8280    3.6070 N   0  0  0  0  0  0  0  0  0  0  0  0
   -3.4000    0.7390    5.7560 N   0  0  0  0  0  1  0  0  0  0  0  0
   -4.4310    5.5600    2.0450 O   0  0  0  0  0  1  0  0  0  0  0  0
   -3.8060    0.5280    3.5370 O   0  0  0  0  0  1  0  0  0  0  0  0
  1  2  1  0
  2  9  1  0
  2 11  1  0
  3  4  1  0
  3  9  1  0
  4  5  1  0
  5  6  1  0
  6  7  1  0
  6  8  1  0
  7  9  1  0
  8 10  1  0
  8 12  1  0
M  END
$$$$
