5qjr_A_K1V_303
     RDKit          3D

 12 12  0  0  0  0  0  0  0  0999 V2000
  -16.8660  -15.9330   -8.5380 C   0  0  0  0  0  1  0  0  0  0  0  0
  -16.6550  -15.1390   -7.2620 C   0  0  0  0  0  3  0  0  0  0  0  0
  -18.1560  -16.7420   -5.8750 C   0  0  0  0  0  2  0  0  0  0  0  0
  -19.4280  -16.2010   -5.1730 C   0  0  0  0  0  2  0  0  0  0  0  0
  -19.0310  -15.4640   -3.8730 C   0  0  0  0  0  2  0  0  0  0  0  0
  -17.9640  -14.3810   -4.1850 C   0  0  0  0  0  3  0  0  0  0  0  0
  -16.7300  -15.0380   -4.7800 C   0  0  0  0  0  2  0  0  0  0  0  0
  -17.4570  -13.6790   -2.9590 C   0  0  0  0  0  3  0  0  0  0  0  0
  -17.0950  -15.6720   -6.0330 N   0  0  0  0  0  0  0  0  0  0  0  0
  -17.7220  -14.2310   -1.7700 N   0  0  0  0  0  1  0  0  0  0  0  0
  -16.0910  -14.0360   -7.2850 O   0  0  0  0  0  1  0  0  0  0  0  0
  -16.8120  -12.6360   -3.0080 O   0  0  0  0  0  1  0  0  0  0  0  0
  1  2  1  0
  2  9  1  0
  2 11  1  0
  3  4  1  0
  3  9  1  0
  4  5  1  0
  5  6  1  0
  6  7  1  0
  6  8  1  0
  7  9  1  0
  8 10  1  0
  8 12  1  0
M  END
$$$$
