5qjt_A_K24_303
     RDKit          3D

 10 10  0  0  0  0  0  0  0  0999 V2000
  -19.2560  -16.3200   -5.4710 C   0  0  0  0  0  1  0  0  0  0  0  0
  -18.3960  -15.0520   -3.3360 C   0  0  0  0  0  3  0  0  0  0  0  0
  -17.2530  -14.3040   -3.9040 C   0  0  0  0  0  3  0  0  0  0  0  0
  -16.6260  -14.4010   -5.1250 C   0  0  0  0  0  2  0  0  0  0  0  0
  -15.4610  -12.7210   -4.2210 C   0  0  0  0  0  3  0  0  0  0  0  0
  -14.4650  -11.6570   -4.0500 C   0  0  0  0  0  1  0  0  0  0  0  0
  -19.2680  -15.9320   -4.0390 N   0  0  0  0  0  2  0  0  0  0  0  0
  -15.5870  -13.4760   -5.3100 N   0  0  0  0  0  2  0  0  0  0  0  0
  -18.6170  -14.8980   -2.1430 O   0  0  0  0  0  1  0  0  0  0  0  0
  -16.5320  -13.0500   -2.9490 S   0  0  0  0  0  0  0  0  0  0  0  0
  1  7  1  0
  2  3  1  0
  2  7  1  0
  2  9  1  0
  3  4  1  0
  3 10  1  0
  4  8  1  0
  5  6  1  0
  5  8  1  0
  5 10  1  0
M  END
$$$$
