5qju_B_K2G_304
     RDKit          3D

 13 13  0  0  0  0  0  0  0  0999 V2000
   -3.3980    6.1120    1.6350 C   0  0  0  0  0  1  0  0  0  0  0  0
   -4.2000    5.3020    2.6780 C   0  0  0  0  0  3  0  0  0  0  0  0
   -5.3270    4.5190    2.0460 C   0  0  0  0  0  1  0  0  0  0  0  0
   -3.2490    4.4250    3.5220 C   0  0  0  0  0  3  0  0  0  0  0  0
   -1.5240    4.4930    5.0560 C   0  0  0  0  0  2  0  0  0  0  0  0
   -1.5530    3.1230    5.1950 C   0  0  0  0  0  3  0  0  0  0  0  0
   -2.5280    2.4260    4.4270 C   0  0  0  0  0  3  0  0  0  0  0  0
   -2.8160    0.9530    4.5640 C   0  0  0  0  0  3  0  0  0  0  0  0
   -0.4260    2.4710    6.2480 Cl  0  0  0  0  0  0  0  0  0  0  0  0
   -2.3620    5.1340    4.2470 N   0  0  0  0  0  2  0  0  0  0  0  0
   -3.3620    3.0660    3.5640 N   0  0  0  0  0  2  0  0  0  0  0  0
   -3.7070    0.4370    3.6440 N   0  0  0  0  0  1  0  0  0  0  0  0
   -2.3270    0.2730    5.4470 O   0  0  0  0  0  1  0  0  0  0  0  0
  1  2  1  0
  2  3  1  0
  2  4  1  0
  4 10  1  0
  4 11  1  0
  5  6  1  0
  5 10  1  0
  6  7  1  0
  6  9  1  0
  7  8  1  0
  7 11  1  0
  8 12  1  0
  8 13  1  0
M  END
$$$$
