5qju_C_K2G_304
     RDKit          3D

 13 13  0  0  0  0  0  0  0  0999 V2000
  -22.8420   28.7610  -53.4400 C   0  0  0  0  0  1  0  0  0  0  0  0
  -21.9760   27.7980  -54.3320 C   0  0  0  0  0  3  0  0  0  0  0  0
  -22.5830   26.3790  -54.3610 C   0  0  0  0  0  1  0  0  0  0  0  0
  -21.8060   28.4290  -55.7390 C   0  0  0  0  0  3  0  0  0  0  0  0
  -21.2890   30.3610  -56.9330 C   0  0  0  0  0  2  0  0  0  0  0  0
  -21.5080   29.6990  -58.1340 C   0  0  0  0  0  3  0  0  0  0  0  0
  -21.8890   28.3310  -58.0720 C   0  0  0  0  0  3  0  0  0  0  0  0
  -22.1560   27.4900  -59.2970 C   0  0  0  0  0  3  0  0  0  0  0  0
  -21.3070   30.5870  -59.5200 Cl  0  0  0  0  0  0  0  0  0  0  0  0
  -21.4290   29.7520  -55.7480 N   0  0  0  0  0  2  0  0  0  0  0  0
  -22.0370   27.6840  -56.8780 N   0  0  0  0  0  2  0  0  0  0  0  0
  -22.7070   26.2470  -59.1000 N   0  0  0  0  0  1  0  0  0  0  0  0
  -21.8930   27.8750  -60.4090 O   0  0  0  0  0  1  0  0  0  0  0  0
  1  2  1  0
  2  3  1  0
  2  4  1  0
  4 10  1  0
  4 11  1  0
  5  6  1  0
  5 10  1  0
  6  7  1  0
  6  9  1  0
  7  8  1  0
  7 11  1  0
  8 12  1  0
  8 13  1  0
M  END
$$$$
