5qjv_C_K2J_304
     RDKit          3D

 10 10  0  0  0  0  0  0  0  0999 V2000
  -23.0740   24.3830  -57.9620 C   0  0  0  0  0  1  0  0  0  0  0  0
  -22.3330   26.7380  -58.3290 C   0  0  0  0  0  3  0  0  0  0  0  0
  -21.9470   28.1850  -56.5400 C   0  0  0  0  0  2  0  0  0  0  0  0
  -21.6570   29.2460  -57.3810 C   0  0  0  0  0  2  0  0  0  0  0  0
  -21.7110   28.9360  -58.7930 C   0  0  0  0  0  3  0  0  0  0  0  0
  -20.8990   31.2210  -59.4380 C   0  0  0  0  0  1  0  0  0  0  0  0
  -22.7180   25.5140  -58.8160 N   0  0  0  0  0  2  0  0  0  0  0  0
  -22.2780   26.9360  -56.9730 N   0  0  0  0  0  2  0  0  0  0  0  0
  -22.0500   27.7080  -59.3060 N   0  0  0  0  0  2  0  0  0  0  0  0
  -21.3540   29.8910  -59.7240 O   0  0  0  0  0  0  0  0  0  0  0  0
  1  7  1  0
  2  7  1  0
  2  8  1  0
  2  9  1  0
  3  4  1  0
  3  8  1  0
  4  5  1  0
  5  9  1  0
  5 10  1  0
  6 10  1  0
M  END
$$$$
