5qjw_B_K2M_304
     RDKit          3D

 16 17  0  0  0  0  0  0  0  0999 V2000
  -19.9700  -18.7020   -5.6140 C   0  0  0  0  0  3  0  0  0  0  0  0
  -20.3390  -16.6390   -4.2910 C   0  0  0  0  0  2  0  0  0  0  0  0
  -19.5370  -15.8020   -3.3150 C   0  0  0  0  0  2  0  0  0  0  0  0
  -17.8590  -15.4320   -5.2740 C   0  0  0  0  0  2  0  0  0  0  0  0
  -18.7080  -16.5160   -6.0170 C   0  0  0  0  0  2  0  0  0  0  0  0
  -17.7290  -14.1650   -3.0150 C   0  0  0  0  0  3  0  0  0  0  0  0
  -16.5620  -13.3590   -3.4010 C   0  0  0  0  0  3  0  0  0  0  0  0
  -15.5250  -13.4820   -4.3050 C   0  0  0  0  0  2  0  0  0  0  0  0
  -14.6910  -12.3260   -4.0910 C   0  0  0  0  0  2  0  0  0  0  0  0
  -15.2590  -11.6100   -3.1240 C   0  0  0  0  0  2  0  0  0  0  0  0
  -20.0060  -18.8210   -6.9880 N   0  0  0  0  0  1  0  0  0  0  0  0
  -19.4420  -17.4220   -5.0920 N   0  0  0  0  0  0  0  0  0  0  0  0
  -18.3790  -15.0400   -3.9010 N   0  0  0  0  0  0  0  0  0  0  0  0
  -20.3640  -19.6360   -4.8830 O   0  0  0  0  0  1  0  0  0  0  0  0
  -18.1510  -14.0480   -1.8590 O   0  0  0  0  0  1  0  0  0  0  0  0
  -16.4080  -12.2190   -2.6760 O   0  0  0  0  0  0  0  0  0  0  0  0
  1 11  1  0
  1 12  1  0
  1 14  1  0
  2  3  1  0
  2 12  1  0
  3 13  1  0
  4  5  1  0
  4 13  1  0
  5 12  1  0
  6  7  1  0
  6 13  1  0
  6 15  1  0
  7  8  1  0
  7 16  1  0
  8  9  1  0
  9 10  1  0
 10 16  1  0
M  END
$$$$
