5qjx_B_K2P_304
     RDKit          3D

 14 14  0  0  0  0  0  0  0  0999 V2000
   13.5550    3.5810   -3.9100 C   0  0  0  0  0  3  0  0  0  0  0  0
   13.4850    5.1330   -3.9510 C   0  0  0  0  0  3  0  0  0  0  0  0
   14.2610    5.8910   -3.0570 C   0  0  0  0  0  2  0  0  0  0  0  0
   14.1070    7.2840   -2.9440 C   0  0  0  0  0  2  0  0  0  0  0  0
   13.1770    7.9540   -3.7510 C   0  0  0  0  0  2  0  0  0  0  0  0
   12.4320    7.2480   -4.6900 C   0  0  0  0  0  2  0  0  0  0  0  0
   12.6140    5.8500   -4.7940 C   0  0  0  0  0  3  0  0  0  0  0  0
   10.6660    4.9370   -5.9190 C   0  0  0  0  0  0  0  0  0  0  0  0
   10.5170    4.2190   -7.0560 F   0  0  0  0  0  0  0  0  0  0  0  0
    9.9560    6.0300   -6.1320 F   0  0  0  0  0  0  0  0  0  0  0  0
   10.1420    4.2460   -4.9040 F   0  0  0  0  0  0  0  0  0  0  0  0
   14.6920    3.1140   -3.9760 O   0  0  0  0  0  1  0  0  0  0  0  0
   12.5010    2.9040   -3.7990 O   0  0  0  0  0  1  0  0  0  0  0  0
   12.0220    5.2210   -5.8770 O   0  0  0  0  0  0  0  0  0  0  0  0
  1  2  1  0
  1 12  1  0
  1 13  1  0
  2  3  1  0
  2  7  1  0
  3  4  1  0
  4  5  1  0
  5  6  1  0
  6  7  1  0
  7 14  1  0
  8  9  1  0
  8 10  1  0
  8 11  1  0
  8 14  1  0
M  END
$$$$
