5qjy_A_K2S_305
     RDKit          3D

 13 13  0  0  0  0  0  0  0  0999 V2000
  -14.6060  -16.2410   -5.2360 C   0  0  0  0  0  1  0  0  0  0  0  0
  -13.3270  -14.2390   -5.8640 C   0  0  0  0  0  1  0  0  0  0  0  0
  -16.3870  -13.5980   -4.7040 C   0  0  0  0  0  3  0  0  0  0  0  0
  -17.4250  -14.0900   -3.7900 C   0  0  0  0  0  3  0  0  0  0  0  0
  -18.3820  -15.2010   -3.9590 C   0  0  0  0  0  1  0  0  0  0  0  0
  -15.7790  -12.5620   -3.9640 C   0  0  0  0  0  3  0  0  0  0  0  0
  -14.6410  -11.6900   -4.2620 C   0  0  0  0  0  1  0  0  0  0  0  0
  -14.6300  -14.8860   -5.7800 N   0  0  0  0  0  0  0  0  0  0  0  0
  -17.4210  -13.3890   -2.6530 N   0  0  0  0  0  2  0  0  0  0  0  0
  -16.4170  -12.4790   -2.7900 N   0  0  0  0  0  2  0  0  0  0  0  0
  -15.6510  -13.0150   -7.0660 O   0  0  0  0  0  1  0  0  0  0  0  0
  -16.8710  -15.0770   -6.7170 O   0  0  0  0  0  1  0  0  0  0  0  0
  -15.9780  -14.1060   -6.2080 S   0  0  0  0  0  4  0  0  0  0  0  0
  1  8  1  0
  2  8  1  0
  3  4  1  0
  3  6  1  0
  3 13  1  0
  4  5  1  0
  4  9  1  0
  6  7  1  0
  6 10  1  0
  8 13  1  0
  9 10  1  0
 11 13  1  0
 12 13  1  0
M  END
$$$$
