5qk1_D_K34_303
     RDKit          3D

 10 11  0  0  0  0  0  0  0  0999 V2000
  -21.6310   30.3410  -56.8770 C   0  0  0  0  0  2  0  0  0  0  0  0
  -21.4300   30.8880  -58.1120 C   0  0  0  0  0  2  0  0  0  0  0  0
  -22.2030   28.5930  -58.0750 C   0  0  0  0  0  3  0  0  0  0  0  0
  -22.6690   27.3090  -58.3700 C   0  0  0  0  0  3  0  0  0  0  0  0
  -23.4300   25.2330  -58.0930 C   0  0  0  0  0  2  0  0  0  0  0  0
  -22.0830   28.9980  -56.8540 N   0  0  0  0  0  2  0  0  0  0  0  0
  -22.8730   26.7920  -59.5780 N   0  0  0  0  0  2  0  0  0  0  0  0
  -23.3450   25.5120  -59.4130 N   0  0  0  0  0  2  0  0  0  0  0  0
  -23.0080   26.3670  -57.3970 N   0  0  0  0  0  2  0  0  0  0  0  0
  -21.7820   29.7550  -59.3120 S   0  0  0  0  0  0  0  0  0  0  0  0
  1  2  1  0
  1  6  1  0
  2 10  1  0
  3  4  1  0
  3  6  1  0
  3 10  1  0
  4  7  1  0
  4  9  1  0
  5  8  1  0
  5  9  1  0
  7  8  1  0
M  END
$$$$
