5qk5_A_K3J_305
     RDKit          3D

 10 10  0  0  0  0  0  0  0  0999 V2000
   -5.9570   -0.1710    1.9200 C   0  0  0  0  0  1  0  0  0  0  0  0
   -4.9110    0.7920    2.4190 C   0  0  0  0  0  2  0  0  0  0  0  0
   -3.3080    1.0370    4.3040 C   0  0  0  0  0  3  0  0  0  0  0  0
   -3.0700    2.4160    3.9830 C   0  0  0  0  0  2  0  0  0  0  0  0
   -2.1230    3.1120    4.7190 C   0  0  0  0  0  2  0  0  0  0  0  0
   -1.4260    2.4620    5.7390 C   0  0  0  0  0  3  0  0  0  0  0  0
   -0.3180    3.1610    6.4640 C   0  0  0  0  0  1  0  0  0  0  0  0
   -4.1720    0.2500    3.5650 N   0  0  0  0  0  2  0  0  0  0  0  0
   -1.7080    1.1440    6.0420 N   0  0  0  0  0  2  0  0  0  0  0  0
   -2.5880    0.4380    5.3880 N   0  0  0  0  0  2  0  0  0  0  0  0
  1  2  1  0
  2  8  1  0
  3  4  1  0
  3  8  1  0
  3 10  1  0
  4  5  1  0
  5  6  1  0
  6  7  1  0
  6  9  1  0
  9 10  1  0
M  END
$$$$
