5qk5_C_K3J_305
     RDKit          3D

 10 10  0  0  0  0  0  0  0  0999 V2000
  -28.9130   10.2410  -62.2180 C   0  0  0  0  0  1  0  0  0  0  0  0
  -28.9200    8.9540  -63.0360 C   0  0  0  0  0  2  0  0  0  0  0  0
  -27.1630    7.4910  -64.0490 C   0  0  0  0  0  3  0  0  0  0  0  0
  -27.9730    6.3110  -64.1680 C   0  0  0  0  0  2  0  0  0  0  0  0
  -27.4080    5.1860  -64.8370 C   0  0  0  0  0  2  0  0  0  0  0  0
  -26.0860    5.3000  -65.3470 C   0  0  0  0  0  3  0  0  0  0  0  0
  -25.3540    4.2010  -66.0800 C   0  0  0  0  0  1  0  0  0  0  0  0
  -27.5590    8.7020  -63.5230 N   0  0  0  0  0  2  0  0  0  0  0  0
  -25.3710    6.4890  -65.1780 N   0  0  0  0  0  2  0  0  0  0  0  0
  -25.8520    7.5000  -64.5740 N   0  0  0  0  0  2  0  0  0  0  0  0
  1  2  1  0
  2  8  1  0
  3  4  1  0
  3  8  1  0
  3 10  1  0
  4  5  1  0
  5  6  1  0
  6  7  1  0
  6  9  1  0
  9 10  1  0
M  END
$$$$
