5qk5_C_K3J_304
     RDKit          3D

 10 10  0  0  0  0  0  0  0  0999 V2000
  -23.7070   24.2780  -57.9680 C   0  0  0  0  0  1  0  0  0  0  0  0
  -23.5960   25.7430  -57.6440 C   0  0  0  0  0  2  0  0  0  0  0  0
  -22.7800   27.7840  -58.7550 C   0  0  0  0  0  3  0  0  0  0  0  0
  -22.5860   28.5350  -57.5420 C   0  0  0  0  0  2  0  0  0  0  0  0
  -22.1060   29.8280  -57.6370 C   0  0  0  0  0  2  0  0  0  0  0  0
  -21.8400   30.3680  -58.9120 C   0  0  0  0  0  3  0  0  0  0  0  0
  -21.3880   31.7670  -59.1090 C   0  0  0  0  0  1  0  0  0  0  0  0
  -23.2480   26.5050  -58.8170 N   0  0  0  0  0  2  0  0  0  0  0  0
  -22.0390   29.6020  -60.0250 N   0  0  0  0  0  2  0  0  0  0  0  0
  -22.4800   28.3820  -59.9900 N   0  0  0  0  0  2  0  0  0  0  0  0
  1  2  1  0
  2  8  1  0
  3  4  1  0
  3  8  1  0
  3 10  1  0
  4  5  1  0
  5  6  1  0
  6  7  1  0
  6  9  1  0
  9 10  1  0
M  END
$$$$
