5qk6_A_K3M_303
     RDKit          3D

 11 11  0  0  0  0  0  0  0  0999 V2000
   -2.8330    6.4990    2.7140 C   0  0  0  0  0  1  0  0  0  0  0  0
   -2.9880    5.0320    3.0000 C   0  0  0  0  0  3  0  0  0  0  0  0
   -1.9990    4.3550    3.7270 C   0  0  0  0  0  2  0  0  0  0  0  0
   -2.0970    2.9840    3.9560 C   0  0  0  0  0  2  0  0  0  0  0  0
   -3.1870    2.2430    3.4570 C   0  0  0  0  0  3  0  0  0  0  0  0
   -3.2400    0.7850    3.7390 C   0  0  0  0  0  3  0  0  0  0  0  0
   -4.1940    2.9210    2.7240 C   0  0  0  0  0  3  0  0  0  0  0  0
   -4.1090    4.3300    2.5000 C   0  0  0  0  0  2  0  0  0  0  0  0
   -5.2120    2.2440    2.2010 F   0  0  0  0  0  0  0  0  0  0  0  0
   -4.0770   -0.0050    2.9870 N   0  0  0  0  0  1  0  0  0  0  0  0
   -2.5440    0.2910    4.6330 O   0  0  0  0  0  1  0  0  0  0  0  0
  1  2  1  0
  2  3  1  0
  2  8  1  0
  3  4  1  0
  4  5  1  0
  5  6  1  0
  5  7  1  0
  6 10  1  0
  6 11  1  0
  7  8  1  0
  7  9  1  0
M  END
$$$$
