5qk7_B_K3P_304
     RDKit          3D

 14 15  0  0  0  0  0  0  0  0999 V2000
   -2.4220    8.3440    1.9780 C   0  0  0  0  0  1  0  0  0  0  0  0
   -3.0650    5.8480    1.8310 C   0  0  0  0  0  2  0  0  0  0  0  0
   -4.0330    5.0860    2.5310 C   0  0  0  0  0  3  0  0  0  0  0  0
   -3.6890    2.7000    2.9340 C   0  0  0  0  0  3  0  0  0  0  0  0
   -2.0620    1.9970    4.4290 C   0  0  0  0  0  2  0  0  0  0  0  0
   -3.5430    0.4090    3.5660 C   0  0  0  0  0  2  0  0  0  0  0  0
   -4.1550    1.3820    2.8020 C   0  0  0  0  0  3  0  0  0  0  0  0
   -4.6940    5.9780    3.4410 C   0  0  0  0  0  2  0  0  0  0  0  0
   -5.3770    0.9260    1.7160 Cl  0  0  0  0  0  0  0  0  0  0  0  0
   -3.1980    7.1440    2.3500 N   0  0  0  0  0  0  0  0  0  0  0  0
   -2.6100    3.0340    3.7420 N   0  0  0  0  0  2  0  0  0  0  0  0
   -2.4840    0.6870    4.3970 N   0  0  0  0  0  2  0  0  0  0  0  0
   -4.1700    7.2290    3.3120 N   0  0  0  0  0  2  0  0  0  0  0  0
   -4.3470    3.7460    2.3180 O   0  0  0  0  0  0  0  0  0  0  0  0
  1 10  1  0
  2  3  1  0
  2 10  1  0
  3  8  1  0
  3 14  1  0
  4  7  1  0
  4 11  1  0
  4 14  1  0
  5 11  1  0
  5 12  1  0
  6  7  1  0
  6 12  1  0
  7  9  1  0
  8 13  1  0
 10 13  1  0
M  END
$$$$
