5qk8_A_K3S_304
     RDKit          3D

 10 10  0  0  0  0  0  0  0  0999 V2000
    1.8670    5.1670    4.1810 C   0  0  0  0  0  1  0  0  0  0  0  0
    0.6310    5.2980    5.0860 C   0  0  0  0  0  2  0  0  0  0  0  0
   -1.3590    4.1270    4.1470 C   0  0  0  0  0  2  0  0  0  0  0  0
   -2.0920    2.8380    4.0370 C   0  0  0  0  0  3  0  0  0  0  0  0
   -3.1560    2.5010    3.1750 C   0  0  0  0  0  2  0  0  0  0  0  0
   -4.4440    0.3190    2.8330 C   0  0  0  0  0  1  0  0  0  0  0  0
   -0.1970    4.0500    5.1030 N   0  0  0  0  0  2  0  0  0  0  0  0
   -3.4490    1.1560    3.4890 N   0  0  0  0  0  0  0  0  0  0  0  0
   -2.5960    0.7330    4.4950 N   0  0  0  0  0  2  0  0  0  0  0  0
   -1.7980    1.7040    4.8190 N   0  0  0  0  0  2  0  0  0  0  0  0
  1  2  1  0
  2  7  1  0
  3  4  1  0
  3  7  1  0
  4  5  1  0
  4 10  1  0
  5  8  1  0
  6  8  1  0
  8  9  1  0
  9 10  1  0
M  END
$$$$
