5qk9_C_K3V_304
     RDKit          3D

 15 16  0  0  0  0  0  0  0  0999 V2000
  -20.6920   31.4490  -54.1320 C   0  0  0  0  0  1  0  0  0  0  0  0
  -21.9270   30.2760  -55.8510 C   0  0  0  0  0  3  0  0  0  0  0  0
  -21.4420   30.8970  -57.0490 C   0  0  0  0  0  2  0  0  0  0  0  0
  -21.4870   30.1870  -58.2650 C   0  0  0  0  0  2  0  0  0  0  0  0
  -22.0130   28.8700  -58.2810 C   0  0  0  0  0  3  0  0  0  0  0  0
  -22.0940   28.1330  -59.5100 C   0  0  0  0  0  2  0  0  0  0  0  0
  -23.0680   26.8720  -57.1820 C   0  0  0  0  0  3  0  0  0  0  0  0
  -22.5010   28.2430  -57.0920 C   0  0  0  0  0  3  0  0  0  0  0  0
  -22.4520   28.9690  -55.8780 C   0  0  0  0  0  3  0  0  0  0  0  0
  -21.9990   27.8120  -53.8630 C   0  0  0  0  0  1  0  0  0  0  0  0
  -22.5720   26.9240  -59.6110 N   0  0  0  0  0  2  0  0  0  0  0  0
  -23.0490   26.2980  -58.5070 N   0  0  0  0  0  2  0  0  0  0  0  0
  -21.9330   30.9570  -54.6440 O   0  0  0  0  0  0  0  0  0  0  0  0
  -23.5900   26.2070  -56.2800 O   0  0  0  0  0  1  0  0  0  0  0  0
  -22.9500   28.4640  -54.6980 O   0  0  0  0  0  0  0  0  0  0  0  0
  1 13  1  0
  2  3  1  0
  2  9  1  0
  2 13  1  0
  3  4  1  0
  4  5  1  0
  5  6  1  0
  5  8  1  0
  6 11  1  0
  7  8  1  0
  7 12  1  0
  7 14  1  0
  8  9  1  0
  9 15  1  0
 10 15  1  0
 11 12  1  0
M  END
$$$$
