5qto_C_PWG_304
     RDKit          3D

 16 17  0  0  0  0  0  0  0  0999 V2000
  -27.9120    3.3840  -65.5290 C   0  0  0  0  0  0  0  0  0  0  0  0
  -28.7280    4.4870  -64.8430 C   0  0  0  0  0  3  0  0  0  0  0  0
  -30.0650    4.3800  -64.5720 C   0  0  0  0  0  2  0  0  0  0  0  0
  -30.7640    5.4720  -63.9460 C   0  0  0  0  0  2  0  0  0  0  0  0
  -30.1250    6.6390  -63.6010 C   0  0  0  0  0  2  0  0  0  0  0  0
  -28.0330    5.6820  -64.4960 C   0  0  0  0  0  3  0  0  0  0  0  0
  -27.8070    7.7370  -63.6630 C   0  0  0  0  0  3  0  0  0  0  0  0
  -27.9930    9.0950  -63.0420 C   0  0  0  0  0  3  0  0  0  0  0  0
  -26.8680    3.8390  -66.2630 F   0  0  0  0  0  0  0  0  0  0  0  0
  -28.6460    2.6400  -66.3880 F   0  0  0  0  0  0  0  0  0  0  0  0
  -26.8040    9.7100  -62.9850 F   0  0  0  0  0  0  0  0  0  0  0  0
  -28.7320    9.9100  -63.8400 F   0  0  0  0  0  0  0  0  0  0  0  0
  -27.3960    2.4890  -64.6670 F   0  0  0  0  0  0  0  0  0  0  0  0
  -28.7620    6.7460  -63.8730 N   0  0  0  0  0  0  0  0  0  0  0  0
  -26.7120    6.0720  -64.6260 N   0  0  0  0  0  2  0  0  0  0  0  0
  -26.5850    7.2880  -64.1290 N   0  0  0  0  0  2  0  0  0  0  0  0
  1  2  1  0
  1  9  1  0
  1 10  1  0
  1 13  1  0
  2  3  1  0
  2  6  1  0
  3  4  1  0
  4  5  1  0
  5 14  1  0
  6 14  1  0
  6 15  1  0
  7  8  1  0
  7 14  1  0
  7 16  1  0
  8 11  1  0
  8 12  1  0
 15 16  1  0
M  END
$$$$
