5qtp_D_PWJ_501
     RDKit          3D

 16 17  0  0  0  0  0  0  0  0999 V2000
  -28.2630    4.9230  -64.3300 C   0  0  0  0  0  3  0  0  0  0  0  0
  -28.0650    6.3050  -63.9790 C   0  0  0  0  0  3  0  0  0  0  0  0
  -27.4430    8.3760  -63.5480 C   0  0  0  0  0  2  0  0  0  0  0  0
  -28.8340    8.3410  -63.2900 C   0  0  0  0  0  2  0  0  0  0  0  0
  -30.5290    6.4580  -63.4970 C   0  0  0  0  0  2  0  0  0  0  0  0
  -30.6680    5.1280  -63.8310 C   0  0  0  0  0  3  0  0  0  0  0  0
  -32.0530    4.4390  -63.8190 C   0  0  0  0  0  0  0  0  0  0  0  0
  -29.4990    4.3380  -64.2240 C   0  0  0  0  0  3  0  0  0  0  0  0
  -29.5630    2.9160  -64.3430 C   0  0  0  0  0  2  0  0  0  0  0  0
  -26.9760    4.0490  -64.9060 Cl  0  0  0  0  0  0  0  0  0  0  0  0
  -33.0690    5.2100  -63.3370 F   0  0  0  0  0  0  0  0  0  0  0  0
  -32.0590    3.2990  -63.0950 F   0  0  0  0  0  0  0  0  0  0  0  0
  -32.4830    4.0510  -65.0520 F   0  0  0  0  0  0  0  0  0  0  0  0
  -26.9500    7.1130  -63.9640 N   0  0  0  0  0  2  0  0  0  0  0  0
  -29.2510    7.0330  -63.5590 N   0  0  0  0  0  0  0  0  0  0  0  0
  -29.5980    1.7490  -64.4090 N   0  0  0  0  0  1  0  0  0  0  0  0
  1  2  1  0
  1  8  1  0
  1 10  1  0
  2 14  1  0
  2 15  1  0
  3  4  1  0
  3 14  1  0
  4 15  1  0
  5  6  1  0
  5 15  1  0
  6  7  1  0
  6  8  1  0
  7 11  1  0
  7 12  1  0
  7 13  1  0
  8  9  1  0
  9 16  1  0
M  END
$$$$
