5dwq_D_SFG_501
     RDKit          3D

 27 29  0  0  0  0  0  0  0  0999 V2000
   15.9270   34.6880   33.4750 C   0  0  0  0  0  3  0  0  0  0  0  0
   12.2270   38.2680   27.1240 C   0  0  0  0  0  3  0  0  0  0  0  0
   12.9160   42.2490   25.2970 C   0  0  0  0  0  2  0  0  0  0  0  0
   11.1140   37.2500   27.2950 C   0  0  0  0  0  3  0  0  0  0  0  0
   11.5680   36.4550   28.5060 C   0  0  0  0  0  3  0  0  0  0  0  0
   12.6690   39.9170   25.3460 C   0  0  0  0  0  3  0  0  0  0  0  0
   13.0740   36.6550   28.5770 C   0  0  0  0  0  3  0  0  0  0  0  0
   12.8940   39.8630   23.8970 C   0  0  0  0  0  3  0  0  0  0  0  0
   13.8810   35.4030   28.2600 C   0  0  0  0  0  2  0  0  0  0  0  0
   13.1360   41.1500   23.2090 C   0  0  0  0  0  3  0  0  0  0  0  0
   12.5710   37.8490   24.6610 C   0  0  0  0  0  2  0  0  0  0  0  0
   15.2490   35.8870   32.8930 C   0  0  0  0  0  3  0  0  0  0  0  0
   14.2750   35.4450   31.8030 C   0  0  0  0  0  2  0  0  0  0  0  0
   14.0150   34.4900   29.4710 C   0  0  0  0  0  3  0  0  0  0  0  0
   14.9860   35.0490   30.5110 C   0  0  0  0  0  2  0  0  0  0  0  0
   16.2430   36.8030   32.3650 N   0  0  0  0  0  1  0  0  0  0  0  0
   13.1320   42.2700   23.9650 N   0  0  0  0  0  2  0  0  0  0  0  0
   12.6920   41.1130   25.9820 N   0  0  0  0  0  2  0  0  0  0  0  0
   13.3530   41.1980   21.8730 N   0  0  0  0  0  1  0  0  0  0  0  0
   12.8210   38.5690   23.5430 N   0  0  0  0  0  2  0  0  0  0  0  0
   12.4750   38.6640   25.7280 N   0  0  0  0  0  0  0  0  0  0  0  0
   14.5390   33.2360   29.0020 N   0  0  0  0  0  1  0  0  0  0  0  0
   15.2710   33.9670   34.2580 O   0  0  0  0  0  1  0  0  0  0  0  0
    9.8530   37.9010   27.4700 O   0  0  0  0  0  1  0  0  0  0  0  0
   10.9520   36.9400   29.7040 O   0  0  0  0  0  1  0  0  0  0  0  0
   13.4080   37.6490   27.6180 O   0  0  0  0  0  0  0  0  0  0  0  0
   17.1150   34.4420   33.1530 O   0  0  0  0  0  1  0  0  0  0  0  0
  1 12  1  0
  1 23  1  0
  1 27  1  0
  2  4  1  0
  2 21  1  0
  2 26  1  0
  3 17  1  0
  3 18  1  0
  4  5  1  0
  4 24  1  0
  5  7  1  0
  5 25  1  0
  6  8  1  0
  6 18  1  0
  6 21  1  0
  7  9  1  0
  7 26  1  0
  8 10  1  0
  8 20  1  0
  9 14  1  0
 10 17  1  0
 10 19  1  0
 11 20  1  0
 11 21  1  0
 12 13  1  0
 12 16  1  0
 13 15  1  0
 14 15  1  0
 14 22  1  0
M  END
$$$$
