5dx0_C_SFG_501
     RDKit          3D

 27 29  0  0  0  0  0  0  0  0999 V2000
   15.6140   14.2160   90.4460 C   0  0  0  0  0  3  0  0  0  0  0  0
   14.6700   22.1070   91.8360 C   0  0  0  0  0  3  0  0  0  0  0  0
   16.8990   24.6080   94.8260 C   0  0  0  0  0  2  0  0  0  0  0  0
   13.3040   21.9310   91.2120 C   0  0  0  0  0  3  0  0  0  0  0  0
   13.2830   20.4270   90.9610 C   0  0  0  0  0  3  0  0  0  0  0  0
   15.9610   24.0320   92.7400 C   0  0  0  0  0  3  0  0  0  0  0  0
   14.7460   20.0610   90.6940 C   0  0  0  0  0  3  0  0  0  0  0  0
   16.5070   25.2560   92.1720 C   0  0  0  0  0  3  0  0  0  0  0  0
   15.0620   19.7190   89.2400 C   0  0  0  0  0  2  0  0  0  0  0  0
   17.2530   26.1440   93.0820 C   0  0  0  0  0  3  0  0  0  0  0  0
   15.4360   24.1720   90.6270 C   0  0  0  0  0  2  0  0  0  0  0  0
   15.5060   15.4140   91.3530 C   0  0  0  0  0  3  0  0  0  0  0  0
   14.6890   16.5120   90.7130 C   0  0  0  0  0  2  0  0  0  0  0  0
   14.6340   18.3130   88.8480 C   0  0  0  0  0  3  0  0  0  0  0  0
   15.4340   17.2090   89.5600 C   0  0  0  0  0  2  0  0  0  0  0  0
   16.8370   15.8940   91.6950 N   0  0  0  0  0  1  0  0  0  0  0  0
   17.4220   25.7680   94.3660 N   0  0  0  0  0  2  0  0  0  0  0  0
   16.1910   23.7590   94.0520 N   0  0  0  0  0  2  0  0  0  0  0  0
   17.7600   27.3060   92.6150 N   0  0  0  0  0  1  0  0  0  0  0  0
   16.1330   25.2960   90.8780 N   0  0  0  0  0  2  0  0  0  0  0  0
   15.3140   23.4370   91.7400 N   0  0  0  0  0  0  0  0  0  0  0  0
   14.9380   18.2630   87.4440 N   0  0  0  0  0  1  0  0  0  0  0  0
   14.5840   13.5180   90.2990 O   0  0  0  0  0  1  0  0  0  0  0  0
   12.2700   22.4100   92.0850 O   0  0  0  0  0  1  0  0  0  0  0  0
   12.9030   19.7130   92.1290 O   0  0  0  0  0  1  0  0  0  0  0  0
   15.4850   21.2400   91.0540 O   0  0  0  0  0  0  0  0  0  0  0  0
   16.7290   13.9580   89.9030 O   0  0  0  0  0  1  0  0  0  0  0  0
  1 12  1  0
  1 23  1  0
  1 27  1  0
  2  4  1  0
  2 21  1  0
  2 26  1  0
  3 17  1  0
  3 18  1  0
  4  5  1  0
  4 24  1  0
  5  7  1  0
  5 25  1  0
  6  8  1  0
  6 18  1  0
  6 21  1  0
  7  9  1  0
  7 26  1  0
  8 10  1  0
  8 20  1  0
  9 14  1  0
 10 17  1  0
 10 19  1  0
 11 20  1  0
 11 21  1  0
 12 13  1  0
 12 16  1  0
 13 15  1  0
 14 15  1  0
 14 22  1  0
M  END
$$$$
