5dx0_D_SFG_501
     RDKit          3D

 27 29  0  0  0  0  0  0  0  0999 V2000
  -14.6290   35.3270   70.8070 C   0  0  0  0  0  3  0  0  0  0  0  0
  -11.0080   38.8200   77.1630 C   0  0  0  0  0  3  0  0  0  0  0  0
  -11.6360   42.9090   78.7210 C   0  0  0  0  0  2  0  0  0  0  0  0
   -9.9680   37.7680   76.9730 C   0  0  0  0  0  3  0  0  0  0  0  0
  -10.4440   37.0980   75.6980 C   0  0  0  0  0  3  0  0  0  0  0  0
  -11.3770   40.5860   78.8530 C   0  0  0  0  0  3  0  0  0  0  0  0
  -11.9610   37.2730   75.7210 C   0  0  0  0  0  3  0  0  0  0  0  0
  -11.5620   40.6460   80.2970 C   0  0  0  0  0  3  0  0  0  0  0  0
  -12.7300   36.0280   76.0930 C   0  0  0  0  0  2  0  0  0  0  0  0
  -11.7860   41.9800   80.8820 C   0  0  0  0  0  3  0  0  0  0  0  0
  -11.2470   38.5750   79.6850 C   0  0  0  0  0  2  0  0  0  0  0  0
  -14.0150   36.4980   71.4720 C   0  0  0  0  0  3  0  0  0  0  0  0
  -13.0980   35.9940   72.5810 C   0  0  0  0  0  2  0  0  0  0  0  0
  -12.9110   35.0390   74.9510 C   0  0  0  0  0  3  0  0  0  0  0  0
  -13.8340   35.5240   73.8280 C   0  0  0  0  0  2  0  0  0  0  0  0
  -15.1130   37.3390   71.9040 N   0  0  0  0  0  1  0  0  0  0  0  0
  -11.8330   43.0390   80.0460 N   0  0  0  0  0  2  0  0  0  0  0  0
  -11.4190   41.7230   78.1240 N   0  0  0  0  0  2  0  0  0  0  0  0
  -11.9610   42.1030   82.2230 N   0  0  0  0  0  1  0  0  0  0  0  0
  -11.4670   39.3840   80.7580 N   0  0  0  0  0  2  0  0  0  0  0  0
  -11.1830   39.3030   78.5580 N   0  0  0  0  0  0  0  0  0  0  0  0
  -13.5830   33.9090   75.5360 N   0  0  0  0  0  1  0  0  0  0  0  0
  -13.9330   34.6510   70.0120 O   0  0  0  0  0  1  0  0  0  0  0  0
   -8.6690   38.3790   76.9040 O   0  0  0  0  0  1  0  0  0  0  0  0
   -9.8780   37.7100   74.5280 O   0  0  0  0  0  1  0  0  0  0  0  0
  -12.2240   38.2020   76.7610 O   0  0  0  0  0  0  0  0  0  0  0  0
  -15.8220   35.1080   71.0800 O   0  0  0  0  0  1  0  0  0  0  0  0
  1 12  1  0
  1 23  1  0
  1 27  1  0
  2  4  1  0
  2 21  1  0
  2 26  1  0
  3 17  1  0
  3 18  1  0
  4  5  1  0
  4 24  1  0
  5  7  1  0
  5 25  1  0
  6  8  1  0
  6 18  1  0
  6 21  1  0
  7  9  1  0
  7 26  1  0
  8 10  1  0
  8 20  1  0
  9 14  1  0
 10 17  1  0
 10 19  1  0
 11 20  1  0
 11 21  1  0
 12 13  1  0
 12 16  1  0
 13 15  1  0
 14 15  1  0
 14 22  1  0
M  END
$$$$
