5dx8_D_SFG_501
     RDKit          3D

 27 29  0  0  0  0  0  0  0  0999 V2000
  -13.9370   35.7170   70.8200 C   0  0  0  0  0  3  0  0  0  0  0  0
   -9.9950   38.8730   77.2530 C   0  0  0  0  0  3  0  0  0  0  0  0
  -10.3560   42.9730   78.9650 C   0  0  0  0  0  2  0  0  0  0  0  0
   -8.9660   37.7850   77.0590 C   0  0  0  0  0  3  0  0  0  0  0  0
   -9.4850   37.1270   75.7920 C   0  0  0  0  0  3  0  0  0  0  0  0
  -10.2630   40.6370   78.9640 C   0  0  0  0  0  3  0  0  0  0  0  0
  -10.9970   37.3980   75.7630 C   0  0  0  0  0  3  0  0  0  0  0  0
  -10.4440   40.6210   80.4240 C   0  0  0  0  0  3  0  0  0  0  0  0
  -11.9320   36.2160   75.9630 C   0  0  0  0  0  2  0  0  0  0  0  0
  -10.5890   41.9180   81.0850 C   0  0  0  0  0  3  0  0  0  0  0  0
  -10.2810   38.6010   79.7180 C   0  0  0  0  0  2  0  0  0  0  0  0
  -13.2590   36.9280   71.3890 C   0  0  0  0  0  3  0  0  0  0  0  0
  -12.2890   36.5020   72.5000 C   0  0  0  0  0  2  0  0  0  0  0  0
  -12.0410   35.2990   74.7320 C   0  0  0  0  0  3  0  0  0  0  0  0
  -12.9980   35.8070   73.6610 C   0  0  0  0  0  2  0  0  0  0  0  0
  -14.2430   37.8880   71.8750 N   0  0  0  0  0  1  0  0  0  0  0  0
  -10.5290   43.0320   80.3000 N   0  0  0  0  0  2  0  0  0  0  0  0
  -10.2220   41.8190   78.2970 N   0  0  0  0  0  2  0  0  0  0  0  0
  -10.7510   41.9590   82.4290 N   0  0  0  0  0  1  0  0  0  0  0  0
  -10.4520   39.3460   80.8170 N   0  0  0  0  0  2  0  0  0  0  0  0
  -10.1600   39.3640   78.6290 N   0  0  0  0  0  0  0  0  0  0  0  0
  -12.5910   34.0310   75.1670 N   0  0  0  0  0  1  0  0  0  0  0  0
  -15.1310   35.4520   71.1900 O   0  0  0  0  0  1  0  0  0  0  0  0
   -7.6540   38.3700   76.9840 O   0  0  0  0  0  1  0  0  0  0  0  0
   -8.8660   37.7360   74.6620 O   0  0  0  0  0  1  0  0  0  0  0  0
  -11.2260   38.2730   76.8560 O   0  0  0  0  0  0  0  0  0  0  0  0
  -13.2550   35.0160   69.9970 O   0  0  0  0  0  1  0  0  0  0  0  0
  1 12  1  0
  1 23  1  0
  1 27  1  0
  2  4  1  0
  2 21  1  0
  2 26  1  0
  3 17  1  0
  3 18  1  0
  4  5  1  0
  4 24  1  0
  5  7  1  0
  5 25  1  0
  6  8  1  0
  6 18  1  0
  6 21  1  0
  7  9  1  0
  7 26  1  0
  8 10  1  0
  8 20  1  0
  9 14  1  0
 10 17  1  0
 10 19  1  0
 11 20  1  0
 11 21  1  0
 12 13  1  0
 12 16  1  0
 13 15  1  0
 14 15  1  0
 14 22  1  0
M  END
$$$$
