5dxj_B_SFG_501
     RDKit          3D

 27 29  0  0  0  0  0  0  0  0999 V2000
   16.2670   34.4320   33.0540 C   0  0  0  0  0  3  0  0  0  0  0  0
   12.5470   37.9150   26.6430 C   0  0  0  0  0  3  0  0  0  0  0  0
   13.1670   41.9340   24.9050 C   0  0  0  0  0  2  0  0  0  0  0  0
   11.4410   36.9070   26.8580 C   0  0  0  0  0  3  0  0  0  0  0  0
   11.9260   36.1550   28.1000 C   0  0  0  0  0  3  0  0  0  0  0  0
   12.9160   39.6220   24.9110 C   0  0  0  0  0  3  0  0  0  0  0  0
   13.4390   36.3390   28.0800 C   0  0  0  0  0  3  0  0  0  0  0  0
   13.1300   39.5870   23.4790 C   0  0  0  0  0  3  0  0  0  0  0  0
   14.2330   35.0580   27.8650 C   0  0  0  0  0  2  0  0  0  0  0  0
   13.3410   40.8540   22.8000 C   0  0  0  0  0  3  0  0  0  0  0  0
   12.8520   37.5930   24.1840 C   0  0  0  0  0  2  0  0  0  0  0  0
   15.6190   35.6130   32.3990 C   0  0  0  0  0  3  0  0  0  0  0  0
   14.6280   35.2170   31.3050 C   0  0  0  0  0  2  0  0  0  0  0  0
   14.2110   34.0800   29.0420 C   0  0  0  0  0  3  0  0  0  0  0  0
   15.2330   34.4420   30.1320 C   0  0  0  0  0  2  0  0  0  0  0  0
   16.6400   36.5160   31.8560 N   0  0  0  0  0  1  0  0  0  0  0  0
   13.3400   41.9620   23.5580 N   0  0  0  0  0  2  0  0  0  0  0  0
   12.9570   40.8000   25.5920 N   0  0  0  0  0  2  0  0  0  0  0  0
   13.4980   40.8780   21.4740 N   0  0  0  0  0  1  0  0  0  0  0  0
   13.0460   38.3210   23.0950 N   0  0  0  0  0  2  0  0  0  0  0  0
   12.7660   38.3690   25.2560 N   0  0  0  0  0  0  0  0  0  0  0  0
   14.7170   32.8970   28.4780 N   0  0  0  0  0  1  0  0  0  0  0  0
   17.4830   34.1810   32.8410 O   0  0  0  0  0  1  0  0  0  0  0  0
   10.1660   37.5180   27.0160 O   0  0  0  0  0  1  0  0  0  0  0  0
   11.3890   36.6850   29.3140 O   0  0  0  0  0  1  0  0  0  0  0  0
   13.6950   37.2300   27.0060 O   0  0  0  0  0  0  0  0  0  0  0  0
   15.5850   33.7540   33.8560 O   0  0  0  0  0  1  0  0  0  0  0  0
  1 12  1  0
  1 23  1  0
  1 27  1  0
  2  4  1  0
  2 21  1  0
  2 26  1  0
  3 17  1  0
  3 18  1  0
  4  5  1  0
  4 24  1  0
  5  7  1  0
  5 25  1  0
  6  8  1  0
  6 18  1  0
  6 21  1  0
  7  9  1  0
  7 26  1  0
  8 10  1  0
  8 20  1  0
  9 14  1  0
 10 17  1  0
 10 19  1  0
 11 20  1  0
 11 21  1  0
 12 13  1  0
 12 16  1  0
 13 15  1  0
 14 15  1  0
 14 22  1  0
M  END
$$$$
