5dxj_A_SFG_501
     RDKit          3D

 27 29  0  0  0  0  0  0  0  0999 V2000
  -14.4790   15.2550   14.4670 C   0  0  0  0  0  3  0  0  0  0  0  0
  -12.8220   23.1660   13.0800 C   0  0  0  0  0  3  0  0  0  0  0  0
  -14.7340   25.8990   10.1910 C   0  0  0  0  0  2  0  0  0  0  0  0
  -11.4460   22.9290   13.6870 C   0  0  0  0  0  3  0  0  0  0  0  0
  -11.5120   21.4260   13.9860 C   0  0  0  0  0  3  0  0  0  0  0  0
  -13.9160   25.1960   12.2520 C   0  0  0  0  0  3  0  0  0  0  0  0
  -12.9940   21.1320   14.1840 C   0  0  0  0  0  3  0  0  0  0  0  0
  -14.3180   26.4410   12.8700 C   0  0  0  0  0  3  0  0  0  0  0  0
  -13.3380   20.7730   15.6370 C   0  0  0  0  0  2  0  0  0  0  0  0
  -14.9660   27.4190   12.0000 C   0  0  0  0  0  3  0  0  0  0  0  0
  -13.4080   25.2160   14.3710 C   0  0  0  0  0  2  0  0  0  0  0  0
  -14.2720   16.4090   13.5160 C   0  0  0  0  0  3  0  0  0  0  0  0
  -13.3540   17.5050   14.1120 C   0  0  0  0  0  2  0  0  0  0  0  0
  -13.0930   19.2980   16.0270 C   0  0  0  0  0  3  0  0  0  0  0  0
  -13.9410   18.2470   15.3050 C   0  0  0  0  0  2  0  0  0  0  0  0
  -15.5860   16.9390   13.1550 N   0  0  0  0  0  1  0  0  0  0  0  0
  -15.1400   27.0870   10.7110 N   0  0  0  0  0  2  0  0  0  0  0  0
  -14.1270   24.9630   10.9370 N   0  0  0  0  0  2  0  0  0  0  0  0
  -15.3700   28.6040   12.5150 N   0  0  0  0  0  1  0  0  0  0  0  0
  -13.9830   26.4080   14.1550 N   0  0  0  0  0  2  0  0  0  0  0  0
  -13.3650   24.5170   13.2280 N   0  0  0  0  0  0  0  0  0  0  0  0
  -13.6280   19.2660   17.3620 N   0  0  0  0  0  1  0  0  0  0  0  0
  -15.5570   15.1650   15.1270 O   0  0  0  0  0  1  0  0  0  0  0  0
  -10.4460   23.2940   12.7450 O   0  0  0  0  0  1  0  0  0  0  0  0
  -11.0630   20.6530   12.8960 O   0  0  0  0  0  1  0  0  0  0  0  0
  -13.6740   22.3430   13.8490 O   0  0  0  0  0  0  0  0  0  0  0  0
  -13.5560   14.4450   14.6160 O   0  0  0  0  0  1  0  0  0  0  0  0
  1 12  1  0
  1 23  1  0
  1 27  1  0
  2  4  1  0
  2 21  1  0
  2 26  1  0
  3 17  1  0
  3 18  1  0
  4  5  1  0
  4 24  1  0
  5  7  1  0
  5 25  1  0
  6  8  1  0
  6 18  1  0
  6 21  1  0
  7  9  1  0
  7 26  1  0
  8 10  1  0
  8 20  1  0
  9 14  1  0
 10 17  1  0
 10 19  1  0
 11 20  1  0
 11 21  1  0
 12 13  1  0
 12 16  1  0
 13 15  1  0
 14 15  1  0
 14 22  1  0
M  END
$$$$
