5ih3_A_SAH_501
     RDKit          3D

 46 62  0  0  0  0  0  0  0  0999 V2000
   53.7290   34.6880  135.0430 C   0  0  0  0  0  0  0  0  0  0  0  0
   49.8370   38.1930  128.6820 C   0  0  0  0  0  0  0  0  0  0  0  0
   50.5030   42.1240  126.8540 C   0  0  0  0  0  3  0  0  0  0  0  0
   48.6950   37.1930  128.8770 C   0  0  0  0  0  0  0  0  0  0  0  0
   49.1290   36.5100  130.1850 C   0  0  0  0  0  0  0  0  0  0  0  0
   50.2300   39.9380  126.8770 C   0  0  0  0  0  3  0  0  0  0  0  0
   50.6590   36.6110  130.1560 C   0  0  0  0  0  0  0  0  0  0  0  0
   50.4540   39.8420  125.5150 C   0  0  0  0  0  3  0  0  0  0  0  0
   51.3500   35.3120  129.7870 C   0  0  0  0  0  5  0  0  0  0  0  0
   50.7010   41.0390  124.8230 C   0  0  0  0  0  3  0  0  0  0  0  0
   50.1670   37.8560  126.2060 C   0  0  0  0  0  3  0  0  0  0  0  0
   53.0720   35.9090  134.3980 C   0  0  0  0  0  6  0  0  0  0  0  0
   52.0430   35.4780  133.3520 C   0  0  0  0  0  6  0  0  0  0  0  0
   52.6300   34.6350  132.2220 C   0  0  0  0  0  0  0  0  0  0  0  0
   49.7400   39.0830  129.3010 H   0  0  0  0  0  0  0  0  0  0  0  0
   50.5460   43.0810  127.3720 H   0  0  0  0  0  0  0  0  0  0  0  0
   48.5520   36.4960  128.0530 H   0  0  0  0  0  0  0  0  0  0  0  0
   54.9730   36.8020  134.3530 H   0  0  0  0  0  0  0  0  0  0  0  0
   48.7320   35.5020  130.2970 H   0  0  0  0  0  0  0  0  0  0  0  0
   51.0980   37.0450  131.0540 H   0  0  0  0  0  0  0  0  0  0  0  0
   52.4000   35.4660  129.5400 H   0  0  0  0  0  2  0  0  0  0  0  0
   50.9110   34.8740  128.8920 H   0  0  0  0  0  0  0  0  0  0  0  0
   50.0750   36.7720  126.2410 H   0  0  0  0  0  0  0  0  0  0  0  0
   52.5720   36.4620  135.1920 H   0  0  0  0  0  0  0  0  0  0  0  0
   51.6000   36.3810  132.9360 H   0  0  0  0  0  2  0  0  0  0  0  0
   51.2030   34.9680  133.8210 H   0  0  0  0  0  0  0  0  0  0  0  0
   53.1540   33.7490  132.5780 Hg  0  0  0  0  0  7  0  0  0  0  0  0
   53.3610   35.1970  131.6410 Hg  0  0  0  0  0 10  0  0  0  0  0  0
   53.8200   37.7250  133.6230 H   0  0  0  0  0  0  0  0  0  0  0  0
   54.3240   36.3240  132.9060 H   0  0  0  0  0  2  0  0  0  0  0  0
   50.7910   40.2700  122.9380 H   0  0  0  0  0  0  0  0  0  0  0  0
   51.0300   41.9940  123.0380 H   0  0  0  0  0  0  0  0  0  0  0  0
   47.4860   38.6020  129.6320 H   0  0  0  0  0  0  0  0  0  0  0  0
   49.1550   37.9480  131.5370 H   0  0  0  0  0  0  0  0  0  0  0  0
   54.1260   36.7730  133.7940 N   0  0  0  0  0  5  0  0  0  0  0  0
   50.7300   42.1870  125.5400 N   0  0  0  0  0  2  0  0  0  0  0  0
   50.2340   41.0560  127.6110 N   0  0  0  0  0  2  0  0  0  0  0  0
   50.8520   41.1100  123.5050 N   0  0  0  0  0  0  0  0  0  0  0  0
   50.4020   38.5200  125.0990 N   0  0  0  0  0  2  0  0  0  0  0  0
   50.0460   38.6470  127.3160 N   0  0  0  0  0  0  0  0  0  0  0  0
   54.9130   34.4430  134.7160 O   0  0  0  0  0  0  0  0  0  0  0  0
   47.4340   37.8670  128.9660 O   0  0  0  0  0  0  0  0  0  0  0  0
   48.5920   37.1580  131.3230 O   0  0  0  0  0  0  0  0  0  0  0  0
   50.9960   37.5180  129.0900 O   0  0  0  0  0  0  0  0  0  0  0  0
   53.0470   34.0310  135.8470 O   0  0  0  0  0  1  0  0  0  0  0  0
   51.2560   34.1190  131.1440 S   0  0  0  0  0  4  0  0  0  0  0  0
  1 12  1  0
  1 27  1  0
  1 41  1  0
  1 45  1  0
  2  4  1  0
  2 15  1  0
  2 40  1  0
  2 44  1  0
  3 16  1  0
  3 36  1  0
  3 37  1  0
  4  5  1  0
  4 17  1  0
  4 42  1  0
  5  7  1  0
  5 19  1  0
  5 43  1  0
  6  8  1  0
  6 37  1  0
  6 40  1  0
  7  9  1  0
  7 20  1  0
  7 44  1  0
  8 10  1  0
  8 39  1  0
  9 21  1  0
  9 22  1  0
  9 28  1  0
  9 46  1  0
 10 36  1  0
 10 38  1  0
 11 23  1  0
 11 39  1  0
 11 40  1  0
 12 13  1  0
 12 24  1  0
 12 27  1  0
 12 28  1  0
 12 35  1  0
 13 14  1  0
 13 25  1  0
 13 26  1  0
 13 27  1  0
 13 28  1  0
 14 27  1  0
 14 28  1  0
 14 46  1  0
 18 35  1  0
 21 28  1  0
 25 28  1  0
 27 28  1  0
 27 41  1  0
 27 46  1  0
 28 30  1  0
 28 35  1  0
 28 46  1  0
 29 35  1  0
 30 35  1  0
 31 38  1  0
 32 38  1  0
 33 42  1  0
 34 43  1  0
M  END
$$$$
