5is6_C_SFG_507
     RDKit          3D

 50 68  0  0  0  0  0  0  0  0999 V2000
   23.3090   36.1490  173.7250 C   0  0  0  0  0  0  0  0  0  0  0  0
   27.2230   39.2520  180.2340 C   0  0  0  0  0  0  0  0  0  0  0  0
   26.8800   43.2100  182.1200 C   0  0  0  0  0  3  0  0  0  0  0  0
   28.2440   38.1210  180.0510 C   0  0  0  0  0  0  0  0  0  0  0  0
   27.7230   37.4310  178.7800 C   0  0  0  0  0  0  0  0  0  0  0  0
   26.9580   41.0100  182.0600 C   0  0  0  0  0  3  0  0  0  0  0  0
   26.2140   37.7230  178.8180 C   0  0  0  0  0  0  0  0  0  0  0  0
   26.7410   40.9130  183.4310 C   0  0  0  0  0  3  0  0  0  0  0  0
   25.2880   36.5600  179.0010 C   0  0  0  0  0  5  0  0  0  0  0  0
   26.5890   42.1210  184.1390 C   0  0  0  0  0  3  0  0  0  0  0  0
   26.9100   38.9230  182.7150 C   0  0  0  0  0  3  0  0  0  0  0  0
   24.0890   37.2850  174.3940 C   0  0  0  0  0  6  0  0  0  0  0  0
   25.0260   36.7570  175.4920 C   0  0  0  0  0  6  0  0  0  0  0  0
   25.1630   35.5870  177.8240 C   0  0  0  0  0  6  0  0  0  0  0  0
   24.2850   36.0680  176.6600 C   0  0  0  0  0  0  0  0  0  0  0  0
   27.4180   40.1130  179.5950 H   0  0  0  0  0  0  0  0  0  0  0  0
   26.9340   44.1860  181.6420 H   0  0  0  0  0  0  0  0  0  0  0  0
   28.2160   37.4240  180.8870 H   0  0  0  0  0  0  0  0  0  0  0  0
   27.9570   36.3670  178.7690 H   0  0  0  0  0  0  0  0  0  0  0  0
   25.9660   38.2730  177.9110 H   0  0  0  0  0  0  0  0  0  0  0  0
   24.2980   36.9280  179.2660 H   0  0  0  0  0  2  0  0  0  0  0  0
   25.5990   36.0190  179.8940 H   0  0  0  0  0  0  0  0  0  0  0  0
   26.9380   37.8360  182.6610 H   0  0  0  0  0  0  0  0  0  0  0  0
   24.6670   37.8050  173.6310 H   0  0  0  0  0  0  0  0  0  0  0  0
   25.7690   36.0860  175.0630 H   0  0  0  0  0  0  0  0  0  0  0  0
   25.6130   37.6010  175.8530 H   0  0  0  0  0  0  0  0  0  0  0  0
   26.1360   35.2390  177.4800 H   0  0  0  0  0  0  0  0  0  0  0  0
   23.5180   36.7480  177.0310 Hg  0  0  0  0  0 10  0  0  0  0  0  0
   23.7120   35.2190  176.2900 Hg  0  0  0  0  0  9  0  0  0  0  0  0
   22.5380   38.6450  174.2560 H   0  0  0  0  0  0  0  0  0  0  0  0
   22.5050   37.7490  175.6180 H   0  0  0  0  0  2  0  0  0  0  0  0
   23.5990   38.9860  175.4940 H   0  0  0  0  0  0  0  0  0  0  0  0
   26.3840   41.3410  186.0070 H   0  0  0  0  0  0  0  0  0  0  0  0
   26.3080   43.0810  185.9310 H   0  0  0  0  0  0  0  0  0  0  0  0
   24.0870   33.7990  177.8170 H   0  0  0  0  0  2  0  0  0  0  0  0
   24.8560   34.1110  179.2700 H   0  0  0  0  0  0  0  0  0  0  0  0
   30.1760   38.0480  180.3530 H   0  0  0  0  0  0  0  0  0  0  0  0
   28.0250   38.9850  177.5790 H   0  0  0  0  0  0  0  0  0  0  0  0
   23.1220   38.2490  174.9850 N   0  0  0  0  0  5  0  0  0  0  0  0
   26.6580   43.2700  183.4380 N   0  0  0  0  0  2  0  0  0  0  0  0
   27.0390   42.1380  181.3340 N   0  0  0  0  0  2  0  0  0  0  0  0
   26.4140   42.1920  185.4540 N   0  0  0  0  0  0  0  0  0  0  0  0
   26.7240   39.5890  183.8330 N   0  0  0  0  0  2  0  0  0  0  0  0
   27.0690   39.7170  181.6090 N   0  0  0  0  0  0  0  0  0  0  0  0
   24.4170   34.5190  178.4510 N   0  0  0  0  0  5  0  0  0  0  0  0
   23.9210   35.3890  172.9140 O   0  0  0  0  0  1  0  0  0  0  0  0
   29.5470   38.6730  179.9050 O   0  0  0  0  0  0  0  0  0  0  0  0
   28.2580   38.0200  177.5860 O   0  0  0  0  0  0  0  0  0  0  0  0
   25.9900   38.6840  179.8750 O   0  0  0  0  0  0  0  0  0  0  0  0
   22.1240   36.0150  174.1170 O   0  0  0  0  0  0  0  0  0  0  0  0
  1 12  1  0
  1 29  1  0
  1 46  1  0
  1 50  1  0
  2  4  1  0
  2 16  1  0
  2 44  1  0
  2 49  1  0
  3 17  1  0
  3 40  1  0
  3 41  1  0
  4  5  1  0
  4 18  1  0
  4 47  1  0
  5  7  1  0
  5 19  1  0
  5 48  1  0
  6  8  1  0
  6 41  1  0
  6 44  1  0
  7  9  1  0
  7 20  1  0
  7 49  1  0
  8 10  1  0
  8 43  1  0
  9 14  1  0
  9 21  1  0
  9 22  1  0
  9 28  1  0
 10 40  1  0
 10 42  1  0
 11 23  1  0
 11 43  1  0
 11 44  1  0
 12 13  1  0
 12 24  1  0
 12 28  1  0
 12 29  1  0
 12 39  1  0
 13 15  1  0
 13 25  1  0
 13 26  1  0
 13 28  1  0
 13 29  1  0
 14 15  1  0
 14 27  1  0
 14 28  1  0
 14 29  1  0
 14 45  1  0
 15 28  1  0
 15 29  1  0
 21 28  1  0
 28 29  1  0
 28 31  1  0
 28 39  1  0
 28 45  1  0
 29 35  1  0
 29 45  1  0
 29 50  1  0
 30 39  1  0
 31 39  1  0
 32 39  1  0
 33 42  1  0
 34 42  1  0
 35 45  1  0
 36 45  1  0
 37 47  1  0
 38 48  1  0
M  END
$$$$
