5is6_B_DXE_2004
     RDKit          3D

 16 15  0  0  0  0  0  0  0  0999 V2000
   32.1860   26.0710  124.0860 C   0  0  0  0  0  0  0  0  0  0  0  0
   30.0690   24.9880  124.3100 C   0  0  0  0  0  0  0  0  0  0  0  0
   29.5980   23.5470  124.5130 C   0  0  0  0  0  0  0  0  0  0  0  0
   29.0980   21.8720  126.1300 C   0  0  0  0  0  0  0  0  0  0  0  0
   32.3210   26.0080  125.0450 H   0  0  0  0  0  0  0  0  0  0  0  0
   33.0390   25.9780  123.6330 H   0  0  0  0  0  0  0  0  0  0  0  0
   31.7980   26.9330  123.8700 H   0  0  0  0  0  0  0  0  0  0  0  0
   30.1460   25.4210  125.1740 H   0  0  0  0  0  0  0  0  0  0  0  0
   29.4140   25.4630  123.7750 H   0  0  0  0  0  0  0  0  0  0  0  0
   30.2570   22.9450  124.1340 H   0  0  0  0  0  0  0  0  0  0  0  0
   28.7560   23.4240  124.0470 H   0  0  0  0  0  0  0  0  0  0  0  0
   29.7620   21.3010  125.7120 H   0  0  0  0  0  0  0  0  0  0  0  0
   29.0920   21.7140  127.0870 H   0  0  0  0  0  0  0  0  0  0  0  0
   28.2230   21.6720  125.7630 H   0  0  0  0  0  0  0  0  0  0  0  0
   31.3100   25.0380  123.6620 O   0  0  0  0  0  0  0  0  0  0  0  0
   29.4150   23.2230  125.8780 O   0  0  0  0  0  0  0  0  0  0  0  0
  1  5  1  0
  1  6  1  0
  1  7  1  0
  1 15  1  0
  2  3  1  0
  2  8  1  0
  2  9  1  0
  2 15  1  0
  3 10  1  0
  3 11  1  0
  3 16  1  0
  4 12  1  0
  4 13  1  0
  4 14  1  0
  4 16  1  0
M  END
$$$$
