5is7_A_DSH_504
     RDKit          3D

 44 58  0  0  0  0  0  0  0  0999 V2000
   49.2460   38.6230  129.7360 C   0  0  0  0  0  0  0  0  0  0  0  0
   49.9690   42.6100  128.0850 C   0  0  0  0  0  3  0  0  0  0  0  0
   48.0390   37.7060  129.8930 C   0  0  0  0  0  0  0  0  0  0  0  0
   48.4320   36.9170  131.1440 C   0  0  0  0  0  0  0  0  0  0  0  0
   49.6650   40.4310  128.0060 C   0  0  0  0  0  3  0  0  0  0  0  0
   49.9560   36.8150  131.0300 C   0  0  0  0  0  0  0  0  0  0  0  0
   49.7890   40.4070  126.6250 C   0  0  0  0  0  3  0  0  0  0  0  0
   50.3570   35.4560  130.4910 C   0  0  0  0  0  5  0  0  0  0  0  0
   50.0200   41.6410  125.9870 C   0  0  0  0  0  3  0  0  0  0  0  0
   49.4560   38.3990  127.2210 C   0  0  0  0  0  3  0  0  0  0  0  0
   52.1570   30.6870  130.8030 C   0  0  0  0  0  6  0  0  0  0  0  0
   51.1660   31.8190  130.9500 C   0  0  0  0  0  6  0  0  0  0  0  0
   51.8640   33.1500  131.1520 C   0  0  0  0  0  0  0  0  0  0  0  0
   49.2030   39.4660  130.4240 H   0  0  0  0  0  0  0  0  0  0  0  0
   50.0540   43.5390  128.6470 H   0  0  0  0  0  0  0  0  0  0  0  0
   47.9120   37.0400  129.0400 H   0  0  0  0  0  0  0  0  0  0  0  0
   53.4970   30.7450  132.3940 H   0  0  0  0  0  2  0  0  0  0  0  0
   47.9690   35.9310  131.1490 H   0  0  0  0  0  0  0  0  0  0  0  0
   50.4830   37.0560  131.9520 H   0  0  0  0  0  0  0  0  0  0  0  0
   51.2200   35.5230  129.8300 H   0  0  0  0  0  2  0  0  0  0  0  0
   49.5850   34.9760  129.8900 H   0  0  0  0  0  0  0  0  0  0  0  0
   49.3090   37.3200  127.1960 H   0  0  0  0  0  0  0  0  0  0  0  0
   52.9960   30.9930  130.1800 H   0  0  0  0  0  0  0  0  0  0  0  0
   51.7060   29.8520  130.2690 H   0  0  0  0  0  0  0  0  0  0  0  0
   50.5030   31.6550  131.7990 H   0  0  0  0  0  0  0  0  0  0  0  0
   50.5210   31.8990  130.0760 H   0  0  0  0  0  2  0  0  0  0  0  0
   52.2240   33.5500  130.2050 Hg  0  0  0  0  0  8  0  0  0  0  0  0
   52.7590   33.0210  131.7580 Hg  0  0  0  0  0  7  0  0  0  0  0  0
   51.9760   30.3480  132.8530 H   0  0  0  0  0  0  0  0  0  0  0  0
   50.0880   40.9900  124.0320 H   0  0  0  0  0  0  0  0  0  0  0  0
   50.3150   42.7000  124.2650 H   0  0  0  0  0  0  0  0  0  0  0  0
   52.9100   29.2410  132.0900 H   0  0  0  0  0  0  0  0  0  0  0  0
   46.9280   38.8880  130.9950 H   0  0  0  0  0  0  0  0  0  0  0  0
   48.4070   38.5240  132.2570 H   0  0  0  0  0  0  0  0  0  0  0  0
   52.6680   30.2260  132.1200 N   0  0  0  0  0  5  0  0  0  0  0  0
   50.1070   42.7430  126.7620 N   0  0  0  0  0  2  0  0  0  0  0  0
   49.7450   41.5040  128.7990 N   0  0  0  0  0  2  0  0  0  0  0  0
   50.1490   41.7820  124.6640 N   0  0  0  0  0  0  0  0  0  0  0  0
   49.6570   39.1160  126.1410 N   0  0  0  0  0  2  0  0  0  0  0  0
   49.4480   39.1260  128.3810 N   0  0  0  0  0  0  0  0  0  0  0  0
   46.8570   38.4710  130.0970 O   0  0  0  0  0  0  0  0  0  0  0  0
   48.0550   37.5990  132.3350 O   0  0  0  0  0  0  0  0  0  0  0  0
   50.3660   37.8450  130.1010 O   0  0  0  0  0  0  0  0  0  0  0  0
   50.8170   34.4280  131.9080 S   0  0  0  0  0  4  0  0  0  0  0  0
  1  3  1  0
  1 14  1  0
  1 40  1  0
  1 43  1  0
  2 15  1  0
  2 36  1  0
  2 37  1  0
  3  4  1  0
  3 16  1  0
  3 41  1  0
  4  6  1  0
  4 18  1  0
  4 42  1  0
  5  7  1  0
  5 37  1  0
  5 40  1  0
  6  8  1  0
  6 19  1  0
  6 43  1  0
  7  9  1  0
  7 39  1  0
  8 20  1  0
  8 21  1  0
  8 27  1  0
  8 44  1  0
  9 36  1  0
  9 38  1  0
 10 22  1  0
 10 39  1  0
 10 40  1  0
 11 12  1  0
 11 23  1  0
 11 24  1  0
 11 27  1  0
 11 28  1  0
 11 35  1  0
 12 13  1  0
 12 25  1  0
 12 26  1  0
 12 27  1  0
 12 28  1  0
 13 27  1  0
 13 28  1  0
 13 44  1  0
 17 28  1  0
 17 35  1  0
 20 27  1  0
 26 27  1  0
 27 28  1  0
 27 44  1  0
 28 35  1  0
 28 44  1  0
 29 35  1  0
 30 38  1  0
 31 38  1  0
 32 35  1  0
 33 41  1  0
 34 42  1  0
M  END
$$$$
