5is7_D_DSH_502
     RDKit          3D

 44 57  0  0  0  0  0  0  0  0999 V2000
   51.2230   23.2830  194.2230 C   0  0  0  0  0  0  0  0  0  0  0  0
   53.5320   25.8780  196.8830 C   0  0  0  0  0  3  0  0  0  0  0  0
   50.0000   23.0120  193.3490 C   0  0  0  0  0  0  0  0  0  0  0  0
   50.0330   21.4850  193.2500 C   0  0  0  0  0  0  0  0  0  0  0  0
   52.5210   25.3160  195.0070 C   0  0  0  0  0  3  0  0  0  0  0  0
   51.5330   21.1660  193.2730 C   0  0  0  0  0  0  0  0  0  0  0  0
   52.8740   26.5100  194.3960 C   0  0  0  0  0  3  0  0  0  0  0  0
   52.1230   20.9630  191.8910 C   0  0  0  0  0  5  0  0  0  0  0  0
   53.6260   27.4200  195.1630 C   0  0  0  0  0  3  0  0  0  0  0  0
   51.7770   25.4100  192.9510 C   0  0  0  0  0  3  0  0  0  0  0  0
   51.2490   19.5360  186.9840 C   0  0  0  0  0  6  0  0  0  0  0  0
   51.9130   19.5960  188.3400 C   0  0  0  0  0  6  0  0  0  0  0  0
   51.0100   20.2110  189.3940 C   0  0  0  0  0  0  0  0  0  0  0  0
   51.0030   23.1220  195.2770 H   0  0  0  0  0  0  0  0  0  0  0  0
   53.8250   25.6580  197.9080 H   0  0  0  0  0  0  0  0  0  0  0  0
   50.0870   23.4660  192.3630 H   0  0  0  0  0  0  0  0  0  0  0  0
   51.2260   18.2150  185.3770 H   0  0  0  0  0  0  0  0  0  0  0  0
   49.5690   21.1400  192.3270 H   0  0  0  0  0  0  0  0  0  0  0  0
   51.7930   20.3470  193.9420 H   0  0  0  0  0  0  0  0  0  0  0  0
   53.1840   20.7230  191.9440 H   0  0  0  0  0  0  0  0  0  0  0  0
   52.0790   21.8570  191.2700 H   0  0  0  0  0  2  0  0  0  0  0  0
   51.2800   25.1180  192.0270 H   0  0  0  0  0  0  0  0  0  0  0  0
   50.1980   19.8100  187.0590 H   0  0  0  0  0  2  0  0  0  0  0  0
   51.6820   20.2770  186.3140 H   0  0  0  0  0  0  0  0  0  0  0  0
   52.1970   18.6020  188.6820 H   0  0  0  0  0  0  0  0  0  0  0  0
   52.8340   20.1750  188.3030 H   0  0  0  0  0  2  0  0  0  0  0  0
   51.1360   21.2920  189.4340 Hg  0  0  0  0  0  8  0  0  0  0  0  0
   49.9640   20.0620  189.1300 Hg  0  0  0  0  0  6  0  0  0  0  0  0
   52.2740   17.7720  186.5540 H   0  0  0  0  0  0  0  0  0  0  0  0
   53.8380   28.9240  193.7680 H   0  0  0  0  0  0  0  0  0  0  0  0
   54.5830   29.2180  195.3140 H   0  0  0  0  0  0  0  0  0  0  0  0
   50.6670   17.5540  186.7730 H   0  0  0  0  0  0  0  0  0  0  0  0
   48.6890   22.9100  194.8050 H   0  0  0  0  0  0  0  0  0  0  0  0
   49.7550   21.2670  195.1730 H   0  0  0  0  0  0  0  0  0  0  0  0
   51.3620   18.1830  186.3830 N   0  0  0  0  0  4  0  0  0  0  0  0
   53.9430   27.0650  196.4260 N   0  0  0  0  0  2  0  0  0  0  0  0
   52.8200   24.9370  196.2550 N   0  0  0  0  0  2  0  0  0  0  0  0
   54.0440   28.6060  194.7100 N   0  0  0  0  0  0  0  0  0  0  0  0
   52.3950   26.5570  193.0960 N   0  0  0  0  0  2  0  0  0  0  0  0
   51.8110   24.6120  194.0650 N   0  0  0  0  0  0  0  0  0  0  0  0
   48.8200   23.4720  193.9980 O   0  0  0  0  0  0  0  0  0  0  0  0
   49.3710   20.8690  194.3480 O   0  0  0  0  0  0  0  0  0  0  0  0
   52.1860   22.3190  193.8520 O   0  0  0  0  0  0  0  0  0  0  0  0
   51.2900   19.5780  191.0740 S   0  0  0  0  0  4  0  0  0  0  0  0
  1  3  1  0
  1 14  1  0
  1 40  1  0
  1 43  1  0
  2 15  1  0
  2 36  1  0
  2 37  1  0
  3  4  1  0
  3 16  1  0
  3 41  1  0
  4  6  1  0
  4 18  1  0
  4 42  1  0
  5  7  1  0
  5 37  1  0
  5 40  1  0
  6  8  1  0
  6 19  1  0
  6 43  1  0
  7  9  1  0
  7 39  1  0
  8 20  1  0
  8 21  1  0
  8 27  1  0
  8 44  1  0
  9 36  1  0
  9 38  1  0
 10 22  1  0
 10 39  1  0
 10 40  1  0
 11 12  1  0
 11 23  1  0
 11 24  1  0
 11 27  1  0
 11 28  1  0
 11 35  1  0
 12 13  1  0
 12 25  1  0
 12 26  1  0
 12 27  1  0
 12 28  1  0
 13 27  1  0
 13 28  1  0
 13 44  1  0
 17 35  1  0
 21 27  1  0
 23 28  1  0
 26 27  1  0
 27 28  1  0
 27 44  1  0
 28 44  1  0
 29 35  1  0
 30 38  1  0
 31 38  1  0
 32 35  1  0
 33 41  1  0
 34 42  1  0
M  END
$$$$
