5is9_B_M2M_506
     RDKit          3D

 23 22  0  0  0  0  0  0  0  0999 V2000
   22.7820   37.9380  143.9230 C   0  0  0  0  0  0  0  0  0  0  0  0
   24.9190   38.7000  144.5710 C   0  0  0  0  0  0  0  0  0  0  0  0
   25.6140   39.6650  145.5520 C   0  0  0  0  0  0  0  0  0  0  0  0
   27.7590   38.7750  146.1900 C   0  0  0  0  0  0  0  0  0  0  0  0
   28.1240   37.2740  146.1800 C   0  0  0  0  0  0  0  0  0  0  0  0
   30.1560   37.4760  144.9800 C   0  0  0  0  0  0  0  0  0  0  0  0
   22.1950   38.7090  143.8970 H   0  0  0  0  0  0  0  0  0  0  0  0
   22.7930   37.7810  142.9650 H   0  0  0  0  0  0  0  0  0  0  0  0
   22.7980   37.0030  144.1820 H   0  0  0  0  0  0  0  0  0  0  0  0
   25.4280   37.8750  144.5240 H   0  0  0  0  0  0  0  0  0  0  0  0
   24.8940   39.1070  143.6910 H   0  0  0  0  0  0  0  0  0  0  0  0
   24.9450   40.1830  146.0270 H   0  0  0  0  0  0  0  0  0  0  0  0
   26.1970   40.2640  145.0590 H   0  0  0  0  0  0  0  0  0  0  0  0
   27.9480   39.1600  145.3200 H   0  0  0  0  0  0  0  0  0  0  0  0
   28.2810   39.2320  146.8670 H   0  0  0  0  0  0  0  0  0  0  0  0
   28.6760   37.0710  146.9510 H   0  0  0  0  0  0  0  0  0  0  0  0
   27.3120   36.7440  146.2150 H   0  0  0  0  0  0  0  0  0  0  0  0
   30.1380   38.4340  145.1270 H   0  0  0  0  0  0  0  0  0  0  0  0
   30.6740   37.0500  145.6810 H   0  0  0  0  0  0  0  0  0  0  0  0
   30.5630   37.2890  144.1190 H   0  0  0  0  0  0  0  0  0  0  0  0
   23.6010   38.4030  144.9770 O   0  0  0  0  0  0  0  0  0  0  0  0
   26.3800   38.9140  146.4800 O   0  0  0  0  0  0  0  0  0  0  0  0
   28.8350   36.9700  144.9970 O   0  0  0  0  0  0  0  0  0  0  0  0
  1  7  1  0
  1  8  1  0
  1  9  1  0
  1 21  1  0
  2  3  1  0
  2 10  1  0
  2 11  1  0
  2 21  1  0
  3 12  1  0
  3 13  1  0
  3 22  1  0
  4  5  1  0
  4 14  1  0
  4 15  1  0
  4 22  1  0
  5 16  1  0
  5 17  1  0
  5 23  1  0
  6 18  1  0
  6 19  1  0
  6 20  1  0
  6 23  1  0
M  END
$$$$
