5is9_C_6D3_501
     RDKit          3D

 71 74  0  0  0  0  0  0  0  0999 V2000
   23.2230   35.8520  174.3630 C   0  0  0  0  0  3  0  0  0  0  0  0
   26.9660   38.9170  183.2880 C   0  0  0  0  0  3  0  0  0  0  0  0
   26.8070   40.9870  183.9870 C   0  0  0  0  0  3  0  0  0  0  0  0
   26.6690   42.2420  184.6530 C   0  0  0  0  0  3  0  0  0  0  0  0
   27.0260   40.9960  182.5920 C   0  0  0  0  0  3  0  0  0  0  0  0
   26.9630   43.3440  182.6120 C   0  0  0  0  0  3  0  0  0  0  0  0
   24.8720   34.4950  178.6740 C   0  0  0  0  0  0  0  0  0  0  0  0
   25.5840   33.5830  179.6930 C   0  0  0  0  0  0  0  0  0  0  0  0
   24.6590   32.8010  180.6340 C   0  0  0  0  0  0  0  0  0  0  0  0
   24.7960   30.4250  181.5110 C   0  0  0  0  0  3  0  0  0  0  0  0
   25.0960   29.1310  180.9240 C   0  0  0  0  0  3  0  0  0  0  0  0
   23.8690   36.8930  175.2370 C   0  0  0  0  0  0  0  0  0  0  0  0
   25.1220   27.7590  181.6250 C   0  0  0  0  0  0  0  0  0  0  0  0
   26.3060   27.4280  182.5070 C   0  0  0  0  0  0  0  0  0  0  0  0
   27.6210   27.6910  181.7510 C   0  0  0  0  0  3  0  0  0  0  0  0
   23.9940   36.3480  176.6680 C   0  0  0  0  0  0  0  0  0  0  0  0
   25.4870   36.1080  177.0590 C   0  0  0  0  0  0  0  0  0  0  0  0
   25.4540   36.6440  179.3650 C   0  0  0  0  0  0  0  0  0  0  0  0
   26.3990   37.8330  179.3280 C   0  0  0  0  0  0  0  0  0  0  0  0
   27.3200   39.2680  180.8770 C   0  0  0  0  0  0  0  0  0  0  0  0
   28.3330   38.2130  180.6680 C   0  0  0  0  0  0  0  0  0  0  0  0
   27.8450   37.5040  179.4480 C   0  0  0  0  0  0  0  0  0  0  0  0
   24.7510   37.1060  174.8920 H   0  0  0  0  0  0  0  0  0  0  0  0
   25.5190   36.2250  180.2530 H   0  0  0  0  0  0  0  0  0  0  0  0
   24.5110   36.9810  179.2400 H   0  0  0  0  0  0  0  0  0  0  0  0
   26.2470   38.3410  178.5230 H   0  0  0  0  0  0  0  0  0  0  0  0
   27.5120   40.0390  180.3020 H   0  0  0  0  0  0  0  0  0  0  0  0
   28.3540   37.5960  181.4400 H   0  0  0  0  0  0  0  0  0  0  0  0
   29.5490   39.4010  179.8480 H   0  0  0  0  0  0  0  0  0  0  0  0
   27.9740   36.4940  179.5430 H   0  0  0  0  0  0  0  0  0  0  0  0
   28.3350   38.8580  178.1710 H   0  0  0  0  0  0  0  0  0  0  0  0
   26.9930   37.9250  183.2870 H   0  0  0  0  0  0  0  0  0  0  0  0
   26.1820   43.0930  186.4140 H   0  0  0  0  0  0  0  0  0  0  0  0
   23.1530   38.4570  174.4260 H   0  0  0  0  0  0  0  0  0  0  0  0
   26.5860   41.5610  186.5490 H   0  0  0  0  0  0  0  0  0  0  0  0
   27.0170   44.1950  182.1140 H   0  0  0  0  0  0  0  0  0  0  0  0
   24.7080   33.9830  177.8240 H   0  0  0  0  0  0  0  0  0  0  0  0
   23.9790   34.8120  179.0650 H   0  0  0  0  0  0  0  0  0  0  0  0
   26.1360   32.9380  179.1930 H   0  0  0  0  0  0  0  0  0  0  0  0
   26.1700   34.1280  180.2330 H   0  0  0  0  0  0  0  0  0  0  0  0
   24.8950   33.0530  181.5300 H   0  0  0  0  0  0  0  0  0  0  0  0
   23.6780   33.0350  180.4690 H   0  0  0  0  0  0  0  0  0  0  0  0
   24.5810   30.6120  182.4830 H   0  0  0  0  0  0  0  0  0  0  0  0
   23.3400   38.6120  175.8880 H   0  0  0  0  0  0  0  0  0  0  0  0
   24.2830   27.6750  182.1790 H   0  0  0  0  0  0  0  0  0  0  0  0
   25.0870   27.0720  180.9210 H   0  0  0  0  0  0  0  0  0  0  0  0
   26.2650   26.4750  182.7200 H   0  0  0  0  0  0  0  0  0  0  0  0
   25.5380   27.8720  184.2330 H   0  0  0  0  0  0  0  0  0  0  0  0
   27.0330   28.0010  184.2010 H   0  0  0  0  0  0  0  0  0  0  0  0
   23.5980   36.9900  177.2980 H   0  0  0  0  0  0  0  0  0  0  0  0
   23.5000   35.4920  176.7380 H   0  0  0  0  0  0  0  0  0  0  0  0
   25.9580   36.9310  176.9510 H   0  0  0  0  0  0  0  0  0  0  0  0
   25.8530   35.4730  176.4580 H   0  0  0  0  0  0  0  0  0  0  0  0
   23.0710   38.0450  175.2220 N   0  0  0  0  0  0  0  0  0  0  0  0
   25.1830   30.6770  179.3960 N   0  0  0  0  0  2  0  0  0  0  0  0
   26.2650   28.1520  183.7330 N   0  0  0  0  0  0  0  0  0  0  0  0
   25.7060   35.6500  178.3840 N   0  0  0  0  0  0  0  0  0  0  0  0
   27.1310   39.6890  182.2130 N   0  0  0  0  0  0  0  0  0  0  0  0
   26.7790   39.6820  184.3780 N   0  0  0  0  0  2  0  0  0  0  0  0
   26.4550   42.3060  186.0290 N   0  0  0  0  0  0  0  0  0  0  0  0
   27.0940   42.1950  181.9470 N   0  0  0  0  0  2  0  0  0  0  0  0
   26.7560   43.3780  183.9190 N   0  0  0  0  0  2  0  0  0  0  0  0
   24.8730   31.3380  180.5040 N   0  0  0  0  0  0  0  0  0  0  0  0
   25.3100   29.3760  179.6040 N   0  0  0  0  0  2  0  0  0  0  0  0
   22.0260   35.5510  174.5970 O   0  0  0  0  0  1  0  0  0  0  0  0
   26.0910   38.6510  180.4880 O   0  0  0  0  0  0  0  0  0  0  0  0
   29.6070   38.7850  180.4560 O   0  0  0  0  0  0  0  0  0  0  0  0
   28.5450   37.9950  178.3040 O   0  0  0  0  0  0  0  0  0  0  0  0
   23.9060   35.3310  173.4400 O   0  0  0  0  0  1  0  0  0  0  0  0
   28.0970   28.8730  181.7320 O   0  0  0  0  0  1  0  0  0  0  0  0
   28.1940   26.6840  181.1670 O   0  0  0  0  0  1  0  0  0  0  0  0
  1 12  1  0
  1 65  1  0
  1 69  1  0
  2 32  1  0
  2 58  1  0
  2 59  1  0
  3  4  1  0
  3  5  1  0
  3 59  1  0
  4 60  1  0
  4 62  1  0
  5 58  1  0
  5 61  1  0
  6 36  1  0
  6 61  1  0
  6 62  1  0
  7  8  1  0
  7 37  1  0
  7 38  1  0
  7 57  1  0
  8  9  1  0
  8 39  1  0
  8 40  1  0
  9 41  1  0
  9 42  1  0
  9 63  1  0
 10 11  1  0
 10 43  1  0
 10 63  1  0
 11 13  1  0
 11 64  1  0
 12 16  1  0
 12 23  1  0
 12 54  1  0
 13 14  1  0
 13 45  1  0
 13 46  1  0
 14 15  1  0
 14 47  1  0
 14 56  1  0
 15 70  1  0
 15 71  1  0
 16 17  1  0
 16 50  1  0
 16 51  1  0
 17 52  1  0
 17 53  1  0
 17 57  1  0
 18 19  1  0
 18 24  1  0
 18 25  1  0
 18 57  1  0
 19 22  1  0
 19 26  1  0
 19 66  1  0
 20 21  1  0
 20 27  1  0
 20 58  1  0
 20 66  1  0
 21 22  1  0
 21 28  1  0
 21 67  1  0
 22 30  1  0
 22 68  1  0
 29 67  1  0
 31 68  1  0
 33 60  1  0
 34 54  1  0
 35 60  1  0
 44 54  1  0
 48 56  1  0
 49 56  1  0
 55 63  1  0
 55 64  1  0
M  END
$$$$
