5is9_A_DXE_510
     RDKit          3D

 16 15  0  0  0  0  0  0  0  0999 V2000
   51.3260   14.8380  100.8960 C   0  0  0  0  0  0  0  0  0  0  0  0
   49.1630   15.2780  100.0190 C   0  0  0  0  0  0  0  0  0  0  0  0
   48.1230   16.3180  100.4480 C   0  0  0  0  0  0  0  0  0  0  0  0
   45.8360   16.8270  100.2870 C   0  0  0  0  0  0  0  0  0  0  0  0
   51.7860   14.6670  101.7330 H   0  0  0  0  0  0  0  0  0  0  0  0
   51.4990   14.1120  100.2770 H   0  0  0  0  0  0  0  0  0  0  0  0
   51.6470   15.6710  100.5150 H   0  0  0  0  0  0  0  0  0  0  0  0
   49.7300   15.6510   99.3260 H   0  0  0  0  0  0  0  0  0  0  0  0
   48.7130   14.4880   99.6800 H   0  0  0  0  0  0  0  0  0  0  0  0
   48.4790   17.2070  100.2940 H   0  0  0  0  0  0  0  0  0  0  0  0
   47.9350   16.2090  101.3930 H   0  0  0  0  0  0  0  0  0  0  0  0
   45.6100   16.4120  101.1340 H   0  0  0  0  0  0  0  0  0  0  0  0
   46.0600   17.7590  100.4320 H   0  0  0  0  0  0  0  0  0  0  0  0
   45.0770   16.7660   99.6850 H   0  0  0  0  0  0  0  0  0  0  0  0
   49.9470   14.9320  101.1320 O   0  0  0  0  0  0  0  0  0  0  0  0
   46.9350   16.1650   99.7210 O   0  0  0  0  0  0  0  0  0  0  0  0
  1  5  1  0
  1  6  1  0
  1  7  1  0
  1 15  1  0
  2  3  1  0
  2  8  1  0
  2  9  1  0
  2 15  1  0
  3 10  1  0
  3 11  1  0
  3 16  1  0
  4 12  1  0
  4 13  1  0
  4 14  1  0
  4 16  1  0
M  END
$$$$
