5isa_C_DXE_505
     RDKit          3D

 16 15  0  0  0  0  0  0  0  0999 V2000
   34.1870   29.8710  184.1140 C   0  0  0  0  0  0  0  0  0  0  0  0
   32.4600   30.8330  182.8320 C   0  0  0  0  0  0  0  0  0  0  0  0
   30.9640   30.6580  183.1170 C   0  0  0  0  0  0  0  0  0  0  0  0
   29.6870   28.9070  182.1270 C   0  0  0  0  0  0  0  0  0  0  0  0
   34.7770   29.9320  183.3470 H   0  0  0  0  0  0  0  0  0  0  0  0
   34.7000   29.9970  184.9270 H   0  0  0  0  0  0  0  0  0  0  0  0
   33.7660   28.9960  184.1300 H   0  0  0  0  0  0  0  0  0  0  0  0
   32.5980   31.6640  182.3500 H   0  0  0  0  0  0  0  0  0  0  0  0
   32.7690   30.0930  182.2850 H   0  0  0  0  0  0  0  0  0  0  0  0
   30.5810   31.5160  183.3590 H   0  0  0  0  0  0  0  0  0  0  0  0
   30.8480   30.0360  183.8510 H   0  0  0  0  0  0  0  0  0  0  0  0
   29.1780   28.7020  181.3270 H   0  0  0  0  0  0  0  0  0  0  0  0
   30.3640   28.2270  182.2630 H   0  0  0  0  0  0  0  0  0  0  0  0
   29.0910   28.9300  182.8920 H   0  0  0  0  0  0  0  0  0  0  0  0
   33.1980   30.8640  184.0250 O   0  0  0  0  0  0  0  0  0  0  0  0
   30.3060   30.1610  181.9790 O   0  0  0  0  0  0  0  0  0  0  0  0
  1  5  1  0
  1  6  1  0
  1  7  1  0
  1 15  1  0
  2  3  1  0
  2  8  1  0
  2  9  1  0
  2 15  1  0
  3 10  1  0
  3 11  1  0
  3 16  1  0
  4 12  1  0
  4 13  1  0
  4 14  1  0
  4 16  1  0
M  END
$$$$
