5isa_A_6D5_501
     RDKit          3D

 57 59  0  0  0  0  0  0  0  0999 V2000
   50.3150   42.5170  127.3960 C   0  0  0  0  0  3  0  0  0  0  0  0
   53.4840   34.9120  135.6080 C   0  0  0  0  0  3  0  0  0  0  0  0
   51.8420   35.4930  133.7780 C   0  0  0  0  0  0  0  0  0  0  0  0
   52.4130   34.8310  132.5080 C   0  0  0  0  0  0  0  0  0  0  0  0
   51.4620   35.6730  130.3670 C   0  0  0  0  0  0  0  0  0  0  0  0
   50.6360   36.9510  130.6120 C   0  0  0  0  0  0  0  0  0  0  0  0
   49.1530   36.7480  130.6140 C   0  0  0  0  0  0  0  0  0  0  0  0
   48.6390   37.4670  129.4430 C   0  0  0  0  0  0  0  0  0  0  0  0
   49.7270   38.4520  129.1980 C   0  0  0  0  0  0  0  0  0  0  0  0
   50.1230   40.1650  127.4060 C   0  0  0  0  0  3  0  0  0  0  0  0
   50.3210   40.1430  126.0570 C   0  0  0  0  0  3  0  0  0  0  0  0
   50.5200   41.3280  125.3660 C   0  0  0  0  0  3  0  0  0  0  0  0
   50.0610   38.0700  126.7380 C   0  0  0  0  0  3  0  0  0  0  0  0
   51.1860   33.3510  130.8930 C   0  0  0  0  0  0  0  0  0  0  0  0
   52.4830   32.6990  130.4220 C   0  0  0  0  0  0  0  0  0  0  0  0
   52.1760   31.4260  129.6480 C   0  0  0  0  0  0  0  0  0  0  0  0
   52.9130   36.0120  134.7360 C   0  0  0  0  0  0  0  0  0  0  0  0
   50.3100   43.3650  127.8770 H   0  0  0  0  0  0  0  0  0  0  0  0
   54.3940   37.2870  134.6450 H   0  0  0  0  0  0  0  0  0  0  0  0
   52.4850   36.6590  135.3080 H   0  0  0  0  0  0  0  0  0  0  0  0
   51.3000   36.2460  133.5080 H   0  0  0  0  0  0  0  0  0  0  0  0
   51.2730   34.8520  134.2470 H   0  0  0  0  0  0  0  0  0  0  0  0
   53.0900   35.4240  132.1450 H   0  0  0  0  0  0  0  0  0  0  0  0
   52.8170   33.9660  132.7090 H   0  0  0  0  0  0  0  0  0  0  0  0
   51.1560   35.2550  129.5400 H   0  0  0  0  0  0  0  0  0  0  0  0
   52.4040   35.9250  130.2770 H   0  0  0  0  0  0  0  0  0  0  0  0
   49.9800   37.1020  126.7350 H   0  0  0  0  0  0  0  0  0  0  0  0
   50.8920   37.3330  131.4630 H   0  0  0  0  0  0  0  0  0  0  0  0
   48.9370   35.8080  130.5230 H   0  0  0  0  0  0  0  0  0  0  0  0
   48.9440   38.0510  131.9390 H   0  0  0  0  0  0  0  0  0  0  0  0
   48.5660   36.8590  128.6810 H   0  0  0  0  0  0  0  0  0  0  0  0
   47.4000   38.8940  129.4060 H   0  0  0  0  0  0  0  0  0  0  0  0
   49.5490   39.2350  129.7400 H   0  0  0  0  0  0  0  0  0  0  0  0
   50.9330   42.0430  123.4680 H   0  0  0  0  0  0  0  0  0  0  0  0
   50.6790   40.4790  123.5040 H   0  0  0  0  0  0  0  0  0  0  0  0
   50.5840   33.3900  130.1320 H   0  0  0  0  0  0  0  0  0  0  0  0
   50.7730   32.7430  131.5400 H   0  0  0  0  0  0  0  0  0  0  0  0
   52.9630   33.3160  129.8480 H   0  0  0  0  0  0  0  0  0  0  0  0
   53.0300   32.4840  131.1900 H   0  0  0  0  0  0  0  0  0  0  0  0
   51.3370   31.5150  129.1760 H   0  0  0  0  0  0  0  0  0  0  0  0
   52.8830   31.2810  128.9980 H   0  0  0  0  0  0  0  0  0  0  0  0
   53.6760   37.1410  133.3410 H   0  0  0  0  0  0  0  0  0  0  0  0
   53.9990   36.6910  134.0650 N   0  0  0  0  0  0  0  0  0  0  0  0
   51.4580   27.7940  129.5360 N   0  0  0  0  0  1  0  0  0  0  0  0
   51.3140   34.7000  131.4980 N   0  0  0  0  0  0  0  0  0  0  0  0
   50.5140   42.5000  126.0420 N   0  0  0  0  0  2  0  0  0  0  0  0
   50.1240   41.3450  128.0770 N   0  0  0  0  0  2  0  0  0  0  0  0
   50.7360   41.2700  123.9390 N   0  0  0  0  0  0  0  0  0  0  0  0
   50.2880   38.8640  125.6410 N   0  0  0  0  0  2  0  0  0  0  0  0
   49.9420   38.8760  127.8280 N   0  0  0  0  0  0  0  0  0  0  0  0
   52.1460   30.2630  130.5270 N   0  0  0  0  0  2  0  0  0  0  0  0
   51.7910   29.0460  129.9870 N   0  0  0  0  0  2  0  0  0  0  0  0
   54.6160   34.5610  135.1620 O   0  0  0  0  0  1  0  0  0  0  0  0
   50.9500   37.8640  129.6140 O   0  0  0  0  0  0  0  0  0  0  0  0
   48.5960   37.2570  131.7690 O   0  0  0  0  0  0  0  0  0  0  0  0
   47.3930   38.0570  129.6930 O   0  0  0  0  0  0  0  0  0  0  0  0
   52.6900   34.6460  136.5530 O   0  0  0  0  0  1  0  0  0  0  0  0
  1 18  1  0
  1 46  1  0
  1 47  1  0
  2 17  1  0
  2 53  1  0
  2 57  1  0
  3  4  1  0
  3 17  1  0
  3 21  1  0
  3 22  1  0
  4 23  1  0
  4 24  1  0
  4 45  1  0
  5  6  1  0
  5 25  1  0
  5 26  1  0
  5 45  1  0
  6  7  1  0
  6 28  1  0
  6 54  1  0
  7  8  1  0
  7 29  1  0
  7 55  1  0
  8  9  1  0
  8 31  1  0
  8 56  1  0
  9 33  1  0
  9 50  1  0
  9 54  1  0
 10 11  1  0
 10 47  1  0
 10 50  1  0
 11 12  1  0
 11 49  1  0
 12 46  1  0
 12 48  1  0
 13 27  1  0
 13 49  1  0
 13 50  1  0
 14 15  1  0
 14 36  1  0
 14 37  1  0
 14 45  1  0
 15 16  1  0
 15 38  1  0
 15 39  1  0
 16 40  1  0
 16 41  1  0
 16 51  1  0
 17 20  1  0
 17 43  1  0
 19 43  1  0
 30 55  1  0
 32 56  1  0
 34 48  1  0
 35 48  1  0
 42 43  1  0
 44 52  1  0
 51 52  1  0
M  END
$$$$
