5isc_C_M2M_504
     RDKit          3D

 23 22  0  0  0  0  0  0  0  0999 V2000
    0.5840   42.8350  187.7400 C   0  0  0  0  0  0  0  0  0  0  0  0
    0.0330   42.5340  185.4770 C   0  0  0  0  0  0  0  0  0  0  0  0
    0.5700   42.5860  184.0230 C   0  0  0  0  0  0  0  0  0  0  0  0
   -0.6200   40.6490  183.1890 C   0  0  0  0  0  0  0  0  0  0  0  0
   -1.9540   40.3040  182.4910 C   0  0  0  0  0  0  0  0  0  0  0  0
   -3.3630   38.4090  182.1980 C   0  0  0  0  0  0  0  0  0  0  0  0
    0.5970   43.7900  187.9140 H   0  0  0  0  0  0  0  0  0  0  0  0
   -0.2090   42.6440  188.2650 H   0  0  0  0  0  0  0  0  0  0  0  0
    1.0560   42.0170  187.9610 H   0  0  0  0  0  0  0  0  0  0  0  0
   -0.2570   41.6300  185.6780 H   0  0  0  0  0  0  0  0  0  0  0  0
   -0.7230   43.1360  185.5590 H   0  0  0  0  0  0  0  0  0  0  0  0
    1.3930   42.0750  183.9690 H   0  0  0  0  0  0  0  0  0  0  0  0
    0.7520   43.5080  183.7840 H   0  0  0  0  0  0  0  0  0  0  0  0
    0.1040   40.1710  182.7540 H   0  0  0  0  0  0  0  0  0  0  0  0
   -0.6670   40.3840  184.1200 H   0  0  0  0  0  0  0  0  0  0  0  0
   -2.5990   41.0100  182.6520 H   0  0  0  0  0  0  0  0  0  0  0  0
   -1.8070   40.2070  181.5370 H   0  0  0  0  0  0  0  0  0  0  0  0
   -2.9260   38.1400  181.3750 H   0  0  0  0  0  0  0  0  0  0  0  0
   -4.1050   38.9990  181.9930 H   0  0  0  0  0  0  0  0  0  0  0  0
   -3.6940   37.6230  182.6610 H   0  0  0  0  0  0  0  0  0  0  0  0
    1.0330   42.9170  186.4010 O   0  0  0  0  0  0  0  0  0  0  0  0
   -0.3760   42.0440  183.1090 O   0  0  0  0  0  0  0  0  0  0  0  0
   -2.4380   39.0870  183.0230 O   0  0  0  0  0  0  0  0  0  0  0  0
  1  7  1  0
  1  8  1  0
  1  9  1  0
  1 21  1  0
  2  3  1  0
  2 10  1  0
  2 11  1  0
  2 21  1  0
  3 12  1  0
  3 13  1  0
  3 22  1  0
  4  5  1  0
  4 14  1  0
  4 15  1  0
  4 22  1  0
  5 16  1  0
  5 17  1  0
  5 23  1  0
  6 18  1  0
  6 19  1  0
  6 20  1  0
  6 23  1  0
M  END
$$$$
