5ise_D_6D2_501
     RDKit          3D

 61 81  0  0  0  0  0  0  0  0999 V2000
   52.4230   14.6250  192.7840 C   0  0  0  0  0  3  0  0  0  0  0  0
   51.9630   22.4620  193.7090 C   0  0  0  0  0  0  0  0  0  0  0  0
   51.6930   18.5560  189.2820 C   0  0  0  0  0  5  0  0  0  0  0  0
   52.3960   19.6220  188.3520 C   0  0  0  0  0  0  0  0  0  0  0  0
   52.7800   19.0320  187.0060 C   0  0  0  0  0  0  0  0  0  0  0  0
   51.2010   18.9060  185.0800 C   0  0  0  0  0  3  0  0  0  0  0  0
   54.2470   25.0330  196.5880 C   0  0  0  0  0  3  0  0  0  0  0  0
   50.5670   22.3860  193.0790 C   0  0  0  0  0  0  0  0  0  0  0  0
   50.4150   20.9180  192.7790 C   0  0  0  0  0  0  0  0  0  0  0  0
   53.3080   24.4000  194.4890 C   0  0  0  0  0  3  0  0  0  0  0  0
   51.7730   20.3760  192.5910 C   0  0  0  0  0  5  0  0  0  0  0  0
   53.8420   25.5130  193.9140 C   0  0  0  0  0  3  0  0  0  0  0  0
   52.1160   20.1390  191.0620 C   0  0  0  0  0  6  0  0  0  0  0  0
   54.5980   26.3950  194.7330 C   0  0  0  0  0  3  0  0  0  0  0  0
   52.7460   24.3880  192.3480 C   0  0  0  0  0  3  0  0  0  0  0  0
   53.1430   15.9320  192.8230 C   0  0  0  0  0  6  0  0  0  0  0  0
   52.3150   16.7590  191.8220 C   0  0  0  0  0  6  0  0  0  0  0  0
   52.9730   17.9960  191.2570 C   0  0  0  0  0  0  0  0  0  0  0  0
   54.5960   15.0680  191.9040 H   0  0  0  0  0  0  0  0  0  0  0  0
   51.9250   22.2600  194.6570 H   0  0  0  0  0  0  0  0  0  0  0  0
   50.7410   18.5850  189.0870 H   0  0  0  0  0  0  0  0  0  0  0  0
   52.0190   17.6830  189.0560 H   0  0  0  0  0  2  0  0  0  0  0  0
   51.3610   17.0450  185.9510 H   0  0  0  0  0  0  0  0  0  0  0  0
   51.7900   20.3570  188.2070 H   0  0  0  0  0  0  0  0  0  0  0  0
   53.2270   19.9640  188.8060 H   0  0  0  0  0  0  0  0  0  0  0  0
   49.9870   19.0270  183.5170 H   0  0  0  0  0  0  0  0  0  0  0  0
   52.5590   18.0720  187.0110 H   0  0  0  0  0  0  0  0  0  0  0  0
   53.7610   19.1350  186.8720 H   0  0  0  0  0  0  0  0  0  0  0  0
   52.2050   20.5650  185.7400 H   0  0  0  0  0  0  0  0  0  0  0  0
   54.9450   15.5040  193.2960 H   0  0  0  0  0  0  0  0  0  0  0  0
   50.5570   22.8890  192.2700 H   0  0  0  0  0  0  0  0  0  0  0  0
   49.7810   22.6160  194.7930 H   0  0  0  0  0  0  0  0  0  0  0  0
   54.3880   24.8470  197.5240 H   0  0  0  0  0  0  0  0  0  0  0  0
   49.8810   20.7900  191.9440 H   0  0  0  0  0  0  0  0  0  0  0  0
   50.4100   20.0800  194.5190 H   0  0  0  0  0  0  0  0  0  0  0  0
   51.8860   19.5420  193.0920 H   0  0  0  0  0  2  0  0  0  0  0  0
   53.0980   20.3610  190.8990 H   0  0  0  0  0  2  0  0  0  0  0  0
   51.5770   20.6870  190.5270 H   0  0  0  0  0  0  0  0  0  0  0  0
   56.0460   27.7210  194.2730 H   0  0  0  0  0  0  0  0  0  0  0  0
   54.6130   28.1190  193.6320 H   0  0  0  0  0  0  0  0  0  0  0  0
   52.3540   24.1270  191.4790 H   0  0  0  0  0  0  0  0  0  0  0  0
   53.0580   16.3040  193.6880 H   0  0  0  0  0  0  0  0  0  0  0  0
   51.4810   17.0240  192.2610 H   0  0  0  0  0  2  0  0  0  0  0  0
   52.0930   16.1910  191.0900 H   0  0  0  0  0  2  0  0  0  0  0  0
   53.4500   18.4860  191.9460 Hg  0  0  0  0  0 11  0  0  0  0  0  0
   53.5820   17.7450  190.5310 Hg  0  0  0  0  0 10  0  0  0  0  0  0
   54.5050   15.7400  192.5360 N   0  0  0  0  0  5  0  0  0  0  0  0
   54.7920   26.1160  196.0510 N   0  0  0  0  0  2  0  0  0  0  0  0
   50.9520   17.4770  185.2850 N   0  0  0  0  0  2  0  0  0  0  0  0
   50.5620   19.5130  184.0570 N   0  0  0  0  0  2  0  0  0  0  0  0
   52.0770   19.6490  185.9100 N   0  0  0  0  0  0  0  0  0  0  0  0
   53.5160   24.1530  195.8260 N   0  0  0  0  0  2  0  0  0  0  0  0
   55.1570   27.5340  194.1540 N   0  0  0  0  0  0  0  0  0  0  0  0
   53.4970   25.4960  192.5930 N   0  0  0  0  0  2  0  0  0  0  0  0
   52.5980   23.7420  193.5050 N   0  0  0  0  0  0  0  0  0  0  0  0
   51.8600   18.7610  190.7340 N   0  0  0  0  0  5  0  0  0  0  0  0
   52.9010   13.6470  192.0940 O   0  0  0  0  0  1  0  0  0  0  0  0
   49.5990   22.8870  193.9350 O   0  0  0  0  0  0  0  0  0  0  0  0
   49.8430   20.1200  193.8360 O   0  0  0  0  0  0  0  0  0  0  0  0
   52.7350   21.4000  193.0140 O   0  0  0  0  0  0  0  0  0  0  0  0
   51.3190   14.5610  193.3820 O   0  0  0  0  0  1  0  0  0  0  0  0
  1 16  1  0
  1 57  1  0
  1 61  1  0
  2  8  1  0
  2 20  1  0
  2 55  1  0
  2 60  1  0
  3  4  1  0
  3 21  1  0
  3 22  1  0
  3 46  1  0
  3 56  1  0
  4  5  1  0
  4 24  1  0
  4 25  1  0
  5 27  1  0
  5 28  1  0
  5 51  1  0
  6 49  1  0
  6 50  1  0
  6 51  1  0
  7 33  1  0
  7 48  1  0
  7 52  1  0
  8  9  1  0
  8 31  1  0
  8 58  1  0
  9 11  1  0
  9 34  1  0
  9 59  1  0
 10 12  1  0
 10 52  1  0
 10 55  1  0
 11 13  1  0
 11 36  1  0
 11 45  1  0
 11 60  1  0
 12 14  1  0
 12 54  1  0
 13 37  1  0
 13 38  1  0
 13 45  1  0
 13 46  1  0
 13 56  1  0
 14 48  1  0
 14 53  1  0
 15 41  1  0
 15 54  1  0
 15 55  1  0
 16 17  1  0
 16 42  1  0
 16 45  1  0
 16 46  1  0
 16 47  1  0
 17 18  1  0
 17 43  1  0
 17 44  1  0
 17 45  1  0
 17 46  1  0
 18 45  1  0
 18 46  1  0
 18 56  1  0
 19 47  1  0
 22 46  1  0
 23 49  1  0
 26 50  1  0
 29 51  1  0
 30 47  1  0
 32 58  1  0
 35 59  1  0
 36 45  1  0
 37 45  1  0
 39 53  1  0
 40 53  1  0
 43 45  1  0
 44 46  1  0
 45 46  1  0
 45 47  1  0
 45 56  1  0
 46 47  1  0
 46 56  1  0
M  END
$$$$
