5isf_A_6D4_501
     RDKit          3D

 55 57  0  0  0  0  0  0  0  0999 V2000
   50.3120   39.9230  127.9710 C   0  0  0  0  0  3  0  0  0  0  0  0
   50.5110   39.8810  126.5560 C   0  0  0  0  0  3  0  0  0  0  0  0
   50.6930   41.0790  125.9380 C   0  0  0  0  0  3  0  0  0  0  0  0
   50.4830   42.1360  127.9800 C   0  0  0  0  0  3  0  0  0  0  0  0
   50.2450   37.7860  127.3070 C   0  0  0  0  0  3  0  0  0  0  0  0
   49.9580   38.2480  129.5900 C   0  0  0  0  0  0  0  0  0  0  0  0
   48.9100   37.2310  129.8110 C   0  0  0  0  0  0  0  0  0  0  0  0
   49.3410   36.4620  130.9830 C   0  0  0  0  0  0  0  0  0  0  0  0
   50.7910   36.6290  131.1290 C   0  0  0  0  0  0  0  0  0  0  0  0
   51.5160   35.3490  130.8650 C   0  0  0  0  0  0  0  0  0  0  0  0
   52.5930   34.9240  132.9810 C   0  0  0  0  0  0  0  0  0  0  0  0
   51.9240   35.2200  134.3800 C   0  0  0  0  0  0  0  0  0  0  0  0
   52.9140   35.8080  135.4330 C   0  0  0  0  0  0  0  0  0  0  0  0
   53.5600   34.6890  136.2340 C   0  0  0  0  0  3  0  0  0  0  0  0
   51.7300   33.0650  131.6700 C   0  0  0  0  0  0  0  0  0  0  0  0
   52.4530   32.8240  130.3260 C   0  0  0  0  0  0  0  0  0  0  0  0
   50.4790   42.9420  128.4420 H   0  0  0  0  0  0  0  0  0  0  0  0
   50.1620   36.9400  127.4070 H   0  0  0  0  0  0  0  0  0  0  0  0
   50.8340   40.3820  124.0180 H   0  0  0  0  0  0  0  0  0  0  0  0
   51.0990   41.8600  124.0890 H   0  0  0  0  0  0  0  0  0  0  0  0
   48.8440   36.6680  129.0630 H   0  0  0  0  0  0  0  0  0  0  0  0
   49.1360   35.5540  130.8610 H   0  0  0  0  0  0  0  0  0  0  0  0
   50.9910   36.9440  131.9910 H   0  0  0  0  0  0  0  0  0  0  0  0
   47.6090   38.1160  130.8700 H   0  0  0  0  0  0  0  0  0  0  0  0
   49.0050   37.7140  132.3870 H   0  0  0  0  0  0  0  0  0  0  0  0
   52.4910   29.0580  131.4690 H   0  0  0  0  0  0  0  0  0  0  0  0
   51.0860   34.8940  130.1660 H   0  0  0  0  0  0  0  0  0  0  0  0
   52.3980   35.5450  130.6070 H   0  0  0  0  0  0  0  0  0  0  0  0
   53.2330   34.2440  133.0750 H   0  0  0  0  0  0  0  0  0  0  0  0
   53.0050   35.7030  132.6580 H   0  0  0  0  0  0  0  0  0  0  0  0
   51.2230   35.8320  134.2530 H   0  0  0  0  0  0  0  0  0  0  0  0
   51.5670   34.4190  134.7180 H   0  0  0  0  0  0  0  0  0  0  0  0
   52.4360   36.3630  136.0200 H   0  0  0  0  0  0  0  0  0  0  0  0
   53.6130   37.2270  134.3510 H   0  0  0  0  0  0  0  0  0  0  0  0
   54.4340   36.0610  134.2940 H   0  0  0  0  0  0  0  0  0  0  0  0
   52.2220   32.6430  132.3490 H   0  0  0  0  0  0  0  0  0  0  0  0
   50.8820   32.6620  131.6240 H   0  0  0  0  0  0  0  0  0  0  0  0
   52.1820   33.1920  129.6020 H   0  0  0  0  0  0  0  0  0  0  0  0
   53.1010   33.3640  130.4700 H   0  0  0  0  0  0  0  0  0  0  0  0
   49.7580   39.0050  130.1080 H   0  0  0  0  0  0  0  0  0  0  0  0
   50.6800   42.2110  126.6390 N   0  0  0  0  0  2  0  0  0  0  0  0
   50.2890   41.0110  128.7260 N   0  0  0  0  0  2  0  0  0  0  0  0
   50.1650   38.6500  128.2410 N   0  0  0  0  0  0  0  0  0  0  0  0
   50.4630   38.4260  126.1100 N   0  0  0  0  0  2  0  0  0  0  0  0
   50.9040   41.1110  124.4830 N   0  0  0  0  0  0  0  0  0  0  0  0
   51.5480   34.4920  132.0410 N   0  0  0  0  0  0  0  0  0  0  0  0
   53.9630   36.5780  134.8190 N   0  0  0  0  0  0  0  0  0  0  0  0
   52.9960   31.6980  130.1880 N   0  0  0  0  0  2  0  0  0  0  0  0
   52.6780   30.7900  130.9350 N   0  0  0  0  0  2  0  0  0  0  0  0
   52.3540   29.8890  131.6940 N   0  0  0  0  0  2  0  0  0  0  0  0
   51.2580   37.6380  130.0910 O   0  0  0  0  0  0  0  0  0  0  0  0
   47.6390   37.8760  130.0730 O   0  0  0  0  0  0  0  0  0  0  0  0
   48.6830   36.9730  132.1870 O   0  0  0  0  0  0  0  0  0  0  0  0
   52.8980   34.0440  137.0840 O   0  0  0  0  0  1  0  0  0  0  0  0
   54.7730   34.4100  136.0390 O   0  0  0  0  0  1  0  0  0  0  0  0
  1  2  1  0
  1 42  1  0
  1 43  1  0
  2  3  1  0
  2 44  1  0
  3 41  1  0
  3 45  1  0
  4 17  1  0
  4 41  1  0
  4 42  1  0
  5 18  1  0
  5 43  1  0
  5 44  1  0
  6  7  1  0
  6 40  1  0
  6 43  1  0
  6 51  1  0
  7  8  1  0
  7 21  1  0
  7 52  1  0
  8  9  1  0
  8 22  1  0
  8 53  1  0
  9 10  1  0
  9 23  1  0
  9 51  1  0
 10 27  1  0
 10 28  1  0
 10 46  1  0
 11 12  1  0
 11 29  1  0
 11 30  1  0
 11 46  1  0
 12 13  1  0
 12 31  1  0
 12 32  1  0
 13 14  1  0
 13 33  1  0
 13 47  1  0
 14 54  1  0
 14 55  1  0
 15 16  1  0
 15 36  1  0
 15 37  1  0
 15 46  1  0
 16 38  1  0
 16 39  1  0
 16 48  1  0
 19 45  1  0
 20 45  1  0
 24 52  1  0
 25 53  1  0
 26 50  1  0
 34 47  1  0
 35 47  1  0
 48 49  1  0
 49 50  1  0
M  END
$$$$
