5isf_B_DXE_504
     RDKit          3D

 16 15  0  0  0  0  0  0  0  0999 V2000
    9.3730   36.5840  161.0640 C   0  0  0  0  0  0  0  0  0  0  0  0
   11.6170   36.0870  160.5200 C   0  0  0  0  0  0  0  0  0  0  0  0
   12.2490   37.4780  160.5660 C   0  0  0  0  0  0  0  0  0  0  0  0
   14.3350   38.5690  160.6020 C   0  0  0  0  0  0  0  0  0  0  0  0
    9.0910   36.2080  160.2160 H   0  0  0  0  0  0  0  0  0  0  0  0
    8.6940   36.4130  161.7350 H   0  0  0  0  0  0  0  0  0  0  0  0
    9.4980   37.5410  160.9680 H   0  0  0  0  0  0  0  0  0  0  0  0
   11.2610   35.9250  159.6320 H   0  0  0  0  0  0  0  0  0  0  0  0
   12.2930   35.4210  160.7210 H   0  0  0  0  0  0  0  0  0  0  0  0
   12.0210   37.9100  161.4040 H   0  0  0  0  0  0  0  0  0  0  0  0
   11.9150   38.0100  159.8270 H   0  0  0  0  0  0  0  0  0  0  0  0
   14.1300   39.1470  159.8510 H   0  0  0  0  0  0  0  0  0  0  0  0
   14.0680   39.0040  161.4270 H   0  0  0  0  0  0  0  0  0  0  0  0
   15.2890   38.3930  160.6240 H   0  0  0  0  0  0  0  0  0  0  0  0
   10.5800   35.9930  161.4590 O   0  0  0  0  0  0  0  0  0  0  0  0
   13.6410   37.3620  160.4650 O   0  0  0  0  0  0  0  0  0  0  0  0
  1  5  1  0
  1  6  1  0
  1  7  1  0
  1 15  1  0
  2  3  1  0
  2  8  1  0
  2  9  1  0
  2 15  1  0
  3 10  1  0
  3 11  1  0
  3 16  1  0
  4 12  1  0
  4 13  1  0
  4 14  1  0
  4 16  1  0
M  END
$$$$
