5isg_A_DXE_501
     RDKit          3D

 16 15  0  0  0  0  0  0  0  0999 V2000
   46.9340   27.5250  126.7530 C   0  0  0  0  0  0  0  0  0  0  0  0
   45.8760   29.4720  125.9930 C   0  0  0  0  0  0  0  0  0  0  0  0
   44.4370   29.2210  125.5530 C   0  0  0  0  0  0  0  0  0  0  0  0
   42.5240   30.3540  124.8120 C   0  0  0  0  0  0  0  0  0  0  0  0
   46.1030   27.2500  127.1710 H   0  0  0  0  0  0  0  0  0  0  0  0
   47.4150   26.7410  126.4440 H   0  0  0  0  0  0  0  0  0  0  0  0
   47.4770   28.0040  127.3980 H   0  0  0  0  0  0  0  0  0  0  0  0
   45.9020   29.6160  126.9520 H   0  0  0  0  0  0  0  0  0  0  0  0
   46.2220   30.2560  125.5380 H   0  0  0  0  0  0  0  0  0  0  0  0
   43.9130   28.9220  126.3130 H   0  0  0  0  0  0  0  0  0  0  0  0
   44.4230   28.5410  124.8620 H   0  0  0  0  0  0  0  0  0  0  0  0
   42.0670   30.0560  125.6140 H   0  0  0  0  0  0  0  0  0  0  0  0
   42.2020   31.2360  124.5650 H   0  0  0  0  0  0  0  0  0  0  0  0
   42.3460   29.7320  124.0890 H   0  0  0  0  0  0  0  0  0  0  0  0
   46.6560   28.3590  125.6660 O   0  0  0  0  0  0  0  0  0  0  0  0
   43.9010   30.4100  125.0520 O   0  0  0  0  0  0  0  0  0  0  0  0
  1  5  1  0
  1  6  1  0
  1  7  1  0
  1 15  1  0
  2  3  1  0
  2  8  1  0
  2  9  1  0
  2 15  1  0
  3 10  1  0
  3 11  1  0
  3 16  1  0
  4 12  1  0
  4 13  1  0
  4 14  1  0
  4 16  1  0
M  END
$$$$
