5isi_D_5N5_501
     RDKit          3D

 33 35  0  0  0  0  0  0  0  0999 V2000
   51.9690   22.4310  194.3310 C   0  0  0  0  0  0  0  0  0  0  0  0
   54.3920   25.0400  197.1090 C   0  0  0  0  0  3  0  0  0  0  0  0
   50.5780   22.4420  193.7660 C   0  0  0  0  0  0  0  0  0  0  0  0
   50.3730   21.0440  193.2990 C   0  0  0  0  0  0  0  0  0  0  0  0
   53.3050   24.4510  195.0850 C   0  0  0  0  0  3  0  0  0  0  0  0
   51.7240   20.5260  192.9570 C   0  0  0  0  0  0  0  0  0  0  0  0
   53.7150   25.6450  194.5290 C   0  0  0  0  0  3  0  0  0  0  0  0
   52.0190   20.6980  191.4790 C   0  0  0  0  0  0  0  0  0  0  0  0
   54.4880   26.5410  195.3180 C   0  0  0  0  0  3  0  0  0  0  0  0
   52.5350   24.5160  192.9840 C   0  0  0  0  0  3  0  0  0  0  0  0
   49.4980   22.0850  195.2980 H   0  0  0  0  0  0  0  0  0  0  0  0
   51.9260   22.2730  195.3080 H   0  0  0  0  0  0  0  0  0  0  0  0
   52.0730   24.2690  192.1260 H   0  0  0  0  0  0  0  0  0  0  0  0
   54.6260   24.8220  198.0170 H   0  0  0  0  0  0  0  0  0  0  0  0
   54.9680   27.8780  193.8490 H   0  0  0  0  0  0  0  0  0  0  0  0
   55.1530   28.4560  195.3200 H   0  0  0  0  0  0  0  0  0  0  0  0
   50.5260   23.0880  193.0070 H   0  0  0  0  0  0  0  0  0  0  0  0
   49.7890   21.0100  192.5310 H   0  0  0  0  0  0  0  0  0  0  0  0
   50.3640   20.3190  194.9910 H   0  0  0  0  0  0  0  0  0  0  0  0
   51.7960   19.6230  193.2120 H   0  0  0  0  0  0  0  0  0  0  0  0
   52.2040   21.6530  191.2960 H   0  0  0  0  0  0  0  0  0  0  0  0
   51.2460   20.4160  190.9580 H   0  0  0  0  0  0  0  0  0  0  0  0
   53.8180   20.4780  190.9540 H   0  0  0  0  0  0  0  0  0  0  0  0
   52.9200   19.4670  190.3390 H   0  0  0  0  0  0  0  0  0  0  0  0
   54.8040   26.2120  196.5900 N   0  0  0  0  0  2  0  0  0  0  0  0
   53.6510   24.1580  196.3820 N   0  0  0  0  0  2  0  0  0  0  0  0
   53.1180   19.9370  191.1060 N   0  0  0  0  0  0  0  0  0  0  0  0
   54.9210   27.7710  194.7700 N   0  0  0  0  0  0  0  0  0  0  0  0
   53.2190   25.6670  193.2070 N   0  0  0  0  0  2  0  0  0  0  0  0
   52.5560   23.7550  194.1200 N   0  0  0  0  0  0  0  0  0  0  0  0
   49.6280   22.7820  194.7620 O   0  0  0  0  0  0  0  0  0  0  0  0
   49.8460   20.2870  194.2960 O   0  0  0  0  0  0  0  0  0  0  0  0
   52.6730   21.3240  193.7030 O   0  0  0  0  0  0  0  0  0  0  0  0
  1  3  1  0
  1 12  1  0
  1 30  1  0
  1 33  1  0
  2 14  1  0
  2 25  1  0
  2 26  1  0
  3  4  1  0
  3 17  1  0
  3 31  1  0
  4  6  1  0
  4 18  1  0
  4 32  1  0
  5  7  1  0
  5 26  1  0
  5 30  1  0
  6  8  1  0
  6 20  1  0
  6 33  1  0
  7  9  1  0
  7 29  1  0
  8 21  1  0
  8 22  1  0
  8 27  1  0
  9 25  1  0
  9 28  1  0
 10 13  1  0
 10 29  1  0
 10 30  1  0
 11 31  1  0
 15 28  1  0
 16 28  1  0
 19 32  1  0
 23 27  1  0
 24 27  1  0
M  END
$$$$
