5k8v_A_6RE_501
     RDKit          3D

 42 44  0  0  0  0  0  0  0  0999 V2000
   50.1390   38.1020  129.3810 C   0  0  0  0  0  0  0  0  0  0  0  0
   50.8430   42.0550  127.6390 C   0  0  0  0  0  3  0  0  0  0  0  0
   48.8610   37.2750  129.5350 C   0  0  0  0  0  0  0  0  0  0  0  0
   49.2290   36.4130  130.7400 C   0  0  0  0  0  0  0  0  0  0  0  0
   50.6040   39.8650  127.6160 C   0  0  0  0  0  3  0  0  0  0  0  0
   50.6950   36.1000  130.4680 C   0  0  0  0  0  0  0  0  0  0  0  0
   50.7890   39.8040  126.2440 C   0  0  0  0  0  3  0  0  0  0  0  0
   50.9590   34.9020  129.5820 C   0  0  0  0  0  0  0  0  0  0  0  0
   51.0150   41.0220  125.5770 C   0  0  0  0  0  3  0  0  0  0  0  0
   51.3370   33.6900  130.4080 C   0  0  0  0  0  0  0  0  0  0  0  0
   50.4760   37.8060  126.8870 C   0  0  0  0  0  3  0  0  0  0  0  0
   52.6350   31.8600  129.3400 C   0  0  0  0  0  3  0  0  0  0  0  0
   50.1680   38.9650  130.0440 H   0  0  0  0  0  0  0  0  0  0  0  0
   50.8730   43.0000  128.1790 H   0  0  0  0  0  0  0  0  0  0  0  0
   48.6640   36.6550  128.6610 H   0  0  0  0  0  0  0  0  0  0  0  0
   48.5880   35.5390  130.8500 H   0  0  0  0  0  0  0  0  0  0  0  0
   51.2570   36.0540  131.3990 H   0  0  0  0  0  0  0  0  0  0  0  0
   51.7230   35.1250  128.8380 H   0  0  0  0  0  0  0  0  0  0  0  0
   50.0920   34.6550  128.9720 H   0  0  0  0  0  0  0  0  0  0  0  0
   50.5750   33.5480  131.1730 H   0  0  0  0  0  0  0  0  0  0  0  0
   52.2650   33.8700  130.9470 H   0  0  0  0  0  0  0  0  0  0  0  0
   50.3580   36.7240  126.8840 H   0  0  0  0  0  0  0  0  0  0  0  0
   51.2140   40.3130  123.6490 H   0  0  0  0  0  0  0  0  0  0  0  0
   51.3710   42.0340  123.8390 H   0  0  0  0  0  0  0  0  0  0  0  0
   50.6390   32.1420  129.1770 H   0  0  0  0  0  0  0  0  0  0  0  0
   51.8050   30.4230  128.1200 H   0  0  0  0  0  0  0  0  0  0  0  0
   53.8330   33.1030  130.4690 H   0  0  0  0  0  0  0  0  0  0  0  0
   54.6700   31.8460  129.7160 H   0  0  0  0  0  0  0  0  0  0  0  0
   53.4790   30.2700  128.3350 H   0  0  0  0  0  0  0  0  0  0  0  0
   47.7620   38.3160  130.7590 H   0  0  0  0  0  0  0  0  0  0  0  0
   49.7420   37.8320  132.0370 H   0  0  0  0  0  0  0  0  0  0  0  0
   51.0340   42.1500  126.3190 N   0  0  0  0  0  2  0  0  0  0  0  0
   53.7700   32.2890  129.8660 N   0  0  0  0  0  0  0  0  0  0  0  0
   50.6230   40.9640  128.3780 N   0  0  0  0  0  2  0  0  0  0  0  0
   51.2140   41.1240  124.2600 N   0  0  0  0  0  0  0  0  0  0  0  0
   50.7060   38.4950  125.7950 N   0  0  0  0  0  2  0  0  0  0  0  0
   51.4980   32.4960  129.5860 N   0  0  0  0  0  0  0  0  0  0  0  0
   50.3990   38.5680  128.0230 N   0  0  0  0  0  0  0  0  0  0  0  0
   52.6410   30.7960  128.5580 N   0  0  0  0  0  0  0  0  0  0  0  0
   47.7340   38.1070  129.7890 O   0  0  0  0  0  0  0  0  0  0  0  0
   49.0660   37.1070  131.9720 O   0  0  0  0  0  0  0  0  0  0  0  0
   51.2090   37.2630  129.7800 O   0  0  0  0  0  0  0  0  0  0  0  0
  1  3  1  0
  1 13  1  0
  1 38  1  0
  1 42  1  0
  2 14  1  0
  2 32  1  0
  2 34  1  0
  3  4  1  0
  3 15  1  0
  3 40  1  0
  4  6  1  0
  4 16  1  0
  4 41  1  0
  5  7  1  0
  5 34  1  0
  5 38  1  0
  6  8  1  0
  6 17  1  0
  6 42  1  0
  7  9  1  0
  7 36  1  0
  8 10  1  0
  8 18  1  0
  8 19  1  0
  9 32  1  0
  9 35  1  0
 10 20  1  0
 10 21  1  0
 10 37  1  0
 11 22  1  0
 11 36  1  0
 11 38  1  0
 12 33  1  0
 12 37  1  0
 12 39  1  0
 23 35  1  0
 24 35  1  0
 25 37  1  0
 26 39  1  0
 27 33  1  0
 28 33  1  0
 29 39  1  0
 30 40  1  0
 31 41  1  0
M  END
$$$$
