5k8w_A_DXE_503
     RDKit          3D

 16 15  0  0  0  0  0  0  0  0999 V2000
   69.1580   36.3960  149.4940 C   0  0  0  0  0  0  0  0  0  0  0  0
   67.9060   34.5300  150.2170 C   0  0  0  0  0  0  0  0  0  0  0  0
   66.4220   34.1590  150.1310 C   0  0  0  0  0  0  0  0  0  0  0  0
   64.2600   35.0860  150.3130 C   0  0  0  0  0  0  0  0  0  0  0  0
   68.7370   36.9990  150.1270 H   0  0  0  0  0  0  0  0  0  0  0  0
   69.4060   36.8870  148.6960 H   0  0  0  0  0  0  0  0  0  0  0  0
   69.9510   36.0090  149.8950 H   0  0  0  0  0  0  0  0  0  0  0  0
   68.0750   34.9840  151.0570 H   0  0  0  0  0  0  0  0  0  0  0  0
   68.4410   33.7210  150.1760 H   0  0  0  0  0  0  0  0  0  0  0  0
   66.1970   33.5580  150.8580 H   0  0  0  0  0  0  0  0  0  0  0  0
   66.2480   33.7200  149.2840 H   0  0  0  0  0  0  0  0  0  0  0  0
   64.0810   34.4710  151.0410 H   0  0  0  0  0  0  0  0  0  0  0  0
   63.8010   35.9250  150.4770 H   0  0  0  0  0  0  0  0  0  0  0  0
   63.9440   34.7030  149.4800 H   0  0  0  0  0  0  0  0  0  0  0  0
   68.2600   35.3740  149.1530 O   0  0  0  0  0  0  0  0  0  0  0  0
   65.6380   35.3180  150.2260 O   0  0  0  0  0  0  0  0  0  0  0  0
  1  5  1  0
  1  6  1  0
  1  7  1  0
  1 15  1  0
  2  3  1  0
  2  8  1  0
  2  9  1  0
  2 15  1  0
  3 10  1  0
  3 11  1  0
  3 16  1  0
  4 12  1  0
  4 13  1  0
  4 14  1  0
  4 16  1  0
M  END
$$$$
