5k8x_D_6ZH_501
     RDKit          3D

 43 45  0  0  0  0  0  0  0  0999 V2000
   51.9220   22.7410  192.8400 C   0  0  0  0  0  0  0  0  0  0  0  0
   54.2760   25.1520  195.6030 C   0  0  0  0  0  3  0  0  0  0  0  0
   50.5370   22.6780  192.2010 C   0  0  0  0  0  0  0  0  0  0  0  0
   50.4760   21.2030  191.8000 C   0  0  0  0  0  0  0  0  0  0  0  0
   53.2970   24.6760  193.6780 C   0  0  0  0  0  3  0  0  0  0  0  0
   51.9080   20.9600  191.3240 C   0  0  0  0  0  0  0  0  0  0  0  0
   53.7800   25.8310  193.0900 C   0  0  0  0  0  3  0  0  0  0  0  0
   52.1870   21.4000  189.9340 C   0  0  0  0  0  3  0  0  0  0  0  0
   54.5730   26.6700  193.8780 C   0  0  0  0  0  3  0  0  0  0  0  0
   52.4200   20.5660  188.9460 C   0  0  0  0  0  3  0  0  0  0  0  0
   52.7390   21.0050  187.5470 C   0  0  0  0  0  0  0  0  0  0  0  0
   52.6520   24.8260  191.5970 C   0  0  0  0  0  3  0  0  0  0  0  0
   52.1700   19.1100  186.0880 C   0  0  0  0  0  3  0  0  0  0  0  0
   52.3990   19.4850  189.0700 H   0  0  0  0  0  0  0  0  0  0  0  0
   55.6370   28.4060  194.0520 H   0  0  0  0  0  0  0  0  0  0  0  0
   54.8780   28.1500  192.5050 H   0  0  0  0  0  0  0  0  0  0  0  0
   54.5180   24.9250  196.6400 H   0  0  0  0  0  0  0  0  0  0  0  0
   52.5630   22.0790  187.5340 H   0  0  0  0  0  0  0  0  0  0  0  0
   53.7980   20.8730  187.3320 H   0  0  0  0  0  0  0  0  0  0  0  0
   51.2650   20.9340  186.0580 H   0  0  0  0  0  0  0  0  0  0  0  0
   50.9290   19.2030  184.4340 H   0  0  0  0  0  0  0  0  0  0  0  0
   53.2230   17.3870  186.4530 H   0  0  0  0  0  0  0  0  0  0  0  0
   53.5850   18.6670  187.5180 H   0  0  0  0  0  0  0  0  0  0  0  0
   51.6810   17.7050  184.6680 H   0  0  0  0  0  0  0  0  0  0  0  0
   52.1860   22.4800  189.7880 H   0  0  0  0  0  0  0  0  0  0  0  0
   52.2160   19.9260  191.4770 H   0  0  0  0  0  0  0  0  0  0  0  0
   49.7210   20.9880  191.0460 H   0  0  0  0  0  0  0  0  0  0  0  0
   50.8260   20.4570  193.6040 H   0  0  0  0  0  0  0  0  0  0  0  0
   50.4480   23.3170  191.3240 H   0  0  0  0  0  0  0  0  0  0  0  0
   49.8680   22.6490  194.0160 H   0  0  0  0  0  0  0  0  0  0  0  0
   51.9170   22.4760  193.8960 H   0  0  0  0  0  0  0  0  0  0  0  0
   52.1690   24.5670  190.6560 H   0  0  0  0  0  0  0  0  0  0  0  0
   54.8140   26.2930  195.1560 N   0  0  0  0  0  2  0  0  0  0  0  0
   51.5610   18.6540  185.0080 N   0  0  0  0  0  0  0  0  0  0  0  0
   53.0400   18.3480  186.7230 N   0  0  0  0  0  0  0  0  0  0  0  0
   53.5010   24.2800  194.9490 N   0  0  0  0  0  2  0  0  0  0  0  0
   55.0650   27.8250  193.4480 N   0  0  0  0  0  0  0  0  0  0  0  0
   53.3480   25.9200  191.7700 N   0  0  0  0  0  2  0  0  0  0  0  0
   51.9790   20.3570  186.4900 N   0  0  0  0  0  0  0  0  0  0  0  0
   52.5820   24.0260  192.7090 N   0  0  0  0  0  0  0  0  0  0  0  0
   49.5570   23.0530  193.1640 O   0  0  0  0  0  0  0  0  0  0  0  0
   50.1510   20.3420  192.8850 O   0  0  0  0  0  0  0  0  0  0  0  0
   52.7210   21.7710  192.1910 O   0  0  0  0  0  0  0  0  0  0  0  0
  1  3  1  0
  1 31  1  0
  1 40  1  0
  1 43  1  0
  2 17  1  0
  2 33  1  0
  2 36  1  0
  3  4  1  0
  3 29  1  0
  3 41  1  0
  4  6  1  0
  4 27  1  0
  4 42  1  0
  5  7  1  0
  5 36  1  0
  5 40  1  0
  6  8  1  0
  6 26  1  0
  6 43  1  0
  7  9  1  0
  7 38  1  0
  8 10  1  0
  8 25  1  0
  9 33  1  0
  9 37  1  0
 10 11  1  0
 10 14  1  0
 11 18  1  0
 11 19  1  0
 11 39  1  0
 12 32  1  0
 12 38  1  0
 12 40  1  0
 13 34  1  0
 13 35  1  0
 13 39  1  0
 15 37  1  0
 16 37  1  0
 20 39  1  0
 21 34  1  0
 22 35  1  0
 23 35  1  0
 24 34  1  0
 28 42  1  0
 30 41  1  0
M  END
$$$$
