5k8x_A_6ZH_501
     RDKit          3D

 43 45  0  0  0  0  0  0  0  0999 V2000
   50.0010   38.3280  128.7620 C   0  0  0  0  0  0  0  0  0  0  0  0
   50.7120   42.2970  127.0420 C   0  0  0  0  0  3  0  0  0  0  0  0
   48.8560   37.3410  128.9700 C   0  0  0  0  0  0  0  0  0  0  0  0
   49.3710   36.5890  130.1980 C   0  0  0  0  0  0  0  0  0  0  0  0
   50.3840   40.1230  126.9980 C   0  0  0  0  0  3  0  0  0  0  0  0
   50.8510   36.4380  129.8590 C   0  0  0  0  0  0  0  0  0  0  0  0
   50.5000   40.0720  125.6140 C   0  0  0  0  0  3  0  0  0  0  0  0
   51.1390   35.2720  128.9830 C   0  0  0  0  0  3  0  0  0  0  0  0
   50.7450   41.2960  124.9550 C   0  0  0  0  0  3  0  0  0  0  0  0
   52.0400   34.3630  129.2830 C   0  0  0  0  0  3  0  0  0  0  0  0
   52.3810   33.1800  128.4190 C   0  0  0  0  0  0  0  0  0  0  0  0
   50.1440   38.0810  126.2420 C   0  0  0  0  0  3  0  0  0  0  0  0
   52.7470   31.3250  129.9780 C   0  0  0  0  0  3  0  0  0  0  0  0
   52.6210   34.4010  130.2030 H   0  0  0  0  0  0  0  0  0  0  0  0
   51.0680   42.3100  123.1970 H   0  0  0  0  0  0  0  0  0  0  0  0
   50.8340   40.5920  123.0280 H   0  0  0  0  0  0  0  0  0  0  0  0
   50.8120   43.2410  127.5760 H   0  0  0  0  0  0  0  0  0  0  0  0
   51.8380   33.3130  127.4840 H   0  0  0  0  0  0  0  0  0  0  0  0
   53.4390   33.1400  128.1670 H   0  0  0  0  0  0  0  0  0  0  0  0
   51.0740   31.5880  128.8370 H   0  0  0  0  0  0  0  0  0  0  0  0
   54.3640   32.6050  129.8320 H   0  0  0  0  0  0  0  0  0  0  0  0
   52.8490   29.7110  131.2460 H   0  0  0  0  0  0  0  0  0  0  0  0
   51.3940   29.8170  130.3670 H   0  0  0  0  0  0  0  0  0  0  0  0
   54.5670   31.3330  130.9290 H   0  0  0  0  0  0  0  0  0  0  0  0
   50.5470   35.2250  128.0690 H   0  0  0  0  0  0  0  0  0  0  0  0
   51.4760   36.4270  130.7500 H   0  0  0  0  0  0  0  0  0  0  0  0
   48.8590   35.6470  130.3860 H   0  0  0  0  0  0  0  0  0  0  0  0
   49.9900   37.9250  131.5210 H   0  0  0  0  0  0  0  0  0  0  0  0
   48.7400   36.6550  128.1320 H   0  0  0  0  0  0  0  0  0  0  0  0
   47.8530   38.9340  129.4290 H   0  0  0  0  0  0  0  0  0  0  0  0
   49.9420   39.1930  129.4210 H   0  0  0  0  0  0  0  0  0  0  0  0
   49.9820   37.0040  126.2410 H   0  0  0  0  0  0  0  0  0  0  0  0
   50.8440   42.4090  125.7140 N   0  0  0  0  0  2  0  0  0  0  0  0
   53.9520   31.7810  130.2570 N   0  0  0  0  0  0  0  0  0  0  0  0
   52.3030   30.2240  130.5610 N   0  0  0  0  0  0  0  0  0  0  0  0
   50.4810   41.2030  127.7730 N   0  0  0  0  0  2  0  0  0  0  0  0
   50.8930   41.4080  123.6290 N   0  0  0  0  0  0  0  0  0  0  0  0
   50.3440   38.7810  125.1460 N   0  0  0  0  0  2  0  0  0  0  0  0
   51.9880   31.9510  129.0910 N   0  0  0  0  0  0  0  0  0  0  0  0
   50.1560   38.8220  127.3900 N   0  0  0  0  0  0  0  0  0  0  0  0
   47.6100   37.9960  129.2120 O   0  0  0  0  0  0  0  0  0  0  0  0
   49.1980   37.3400  131.3880 O   0  0  0  0  0  0  0  0  0  0  0  0
   51.1820   37.6320  129.1230 O   0  0  0  0  0  0  0  0  0  0  0  0
  1  3  1  0
  1 31  1  0
  1 40  1  0
  1 43  1  0
  2 17  1  0
  2 33  1  0
  2 36  1  0
  3  4  1  0
  3 29  1  0
  3 41  1  0
  4  6  1  0
  4 27  1  0
  4 42  1  0
  5  7  1  0
  5 36  1  0
  5 40  1  0
  6  8  1  0
  6 26  1  0
  6 43  1  0
  7  9  1  0
  7 38  1  0
  8 10  1  0
  8 25  1  0
  9 33  1  0
  9 37  1  0
 10 11  1  0
 10 14  1  0
 11 18  1  0
 11 19  1  0
 11 39  1  0
 12 32  1  0
 12 38  1  0
 12 40  1  0
 13 34  1  0
 13 35  1  0
 13 39  1  0
 15 37  1  0
 16 37  1  0
 20 39  1  0
 21 34  1  0
 22 35  1  0
 23 35  1  0
 24 34  1  0
 28 42  1  0
 30 41  1  0
M  END
$$$$
