5k8x_B_DXE_505
     RDKit          3D

 16 15  0  0  0  0  0  0  0  0999 V2000
   10.8310   10.8490  134.6070 C   0  0  0  0  0  0  0  0  0  0  0  0
    9.2250   12.5730  134.2700 C   0  0  0  0  0  0  0  0  0  0  0  0
    8.0410   11.7180  133.8240 C   0  0  0  0  0  0  0  0  0  0  0  0
    5.7130   11.5020  134.1300 C   0  0  0  0  0  0  0  0  0  0  0  0
   11.6240   10.4640  134.2010 H   0  0  0  0  0  0  0  0  0  0  0  0
   10.1210   10.1880  134.6190 H   0  0  0  0  0  0  0  0  0  0  0  0
   11.0340   11.1230  135.5150 H   0  0  0  0  0  0  0  0  0  0  0  0
    9.2180   12.6560  135.2360 H   0  0  0  0  0  0  0  0  0  0  0  0
    9.1570   13.4540  133.8690 H   0  0  0  0  0  0  0  0  0  0  0  0
    8.0610   11.6170  132.8590 H   0  0  0  0  0  0  0  0  0  0  0  0
    8.1000   10.8440  134.2400 H   0  0  0  0  0  0  0  0  0  0  0  0
    4.9450   11.9640  134.5020 H   0  0  0  0  0  0  0  0  0  0  0  0
    5.8770   10.6900  134.6340 H   0  0  0  0  0  0  0  0  0  0  0  0
    5.5360   11.2770  133.2030 H   0  0  0  0  0  0  0  0  0  0  0  0
   10.4200   11.9650  133.8620 O   0  0  0  0  0  0  0  0  0  0  0  0
    6.8380   12.3330  134.2020 O   0  0  0  0  0  0  0  0  0  0  0  0
  1  5  1  0
  1  6  1  0
  1  7  1  0
  1 15  1  0
  2  3  1  0
  2  8  1  0
  2  9  1  0
  2 15  1  0
  3 10  1  0
  3 11  1  0
  3 16  1  0
  4 12  1  0
  4 13  1  0
  4 14  1  0
  4 16  1  0
M  END
$$$$
