5lkj_A_DXE_506
     RDKit          3D

 16 15  0  0  0  0  0  0  0  0999 V2000
   42.6920   30.0530  125.4450 C   0  0  0  0  0  0  0  0  0  0  0  0
   44.4680   28.8280  126.3770 C   0  0  0  0  0  0  0  0  0  0  0  0
   45.6300   28.9530  127.3610 C   0  0  0  0  0  0  0  0  0  0  0  0
   47.0910   27.1030  127.2570 C   0  0  0  0  0  0  0  0  0  0  0  0
   42.0660   29.4310  125.8470 H   0  0  0  0  0  0  0  0  0  0  0  0
   42.2990   30.9400  125.4260 H   0  0  0  0  0  0  0  0  0  0  0  0
   42.8950   29.7690  124.5400 H   0  0  0  0  0  0  0  0  0  0  0  0
   43.8130   28.2040  126.7270 H   0  0  0  0  0  0  0  0  0  0  0  0
   44.8000   28.5050  125.5250 H   0  0  0  0  0  0  0  0  0  0  0  0
   45.4090   28.4850  128.1820 H   0  0  0  0  0  0  0  0  0  0  0  0
   45.7880   29.8900  127.5560 H   0  0  0  0  0  0  0  0  0  0  0  0
   47.8390   26.7500  126.7500 H   0  0  0  0  0  0  0  0  0  0  0  0
   47.3280   27.1400  128.1970 H   0  0  0  0  0  0  0  0  0  0  0  0
   46.3200   26.5260  127.1400 H   0  0  0  0  0  0  0  0  0  0  0  0
   43.8710   30.0810  126.2000 O   0  0  0  0  0  0  0  0  0  0  0  0
   46.7850   28.3920  126.8010 O   0  0  0  0  0  0  0  0  0  0  0  0
  1  5  1  0
  1  6  1  0
  1  7  1  0
  1 15  1  0
  2  3  1  0
  2  8  1  0
  2  9  1  0
  2 15  1  0
  3 10  1  0
  3 11  1  0
  3 16  1  0
  4 12  1  0
  4 13  1  0
  4 14  1  0
  4 16  1  0
M  END
$$$$
