5lv2_C_SAO_501
     RDKit          3D

 46 61  0  0  0  0  0  0  0  0999 V2000
    9.3400   14.5690   70.6630 C   0  0  0  0  0  0  0  0  0  0  0  0
   12.8830   10.6810   77.0950 C   0  0  0  0  0  0  0  0  0  0  0  0
   16.8200   11.2690   78.9190 C   0  0  0  0  0  3  0  0  0  0  0  0
   11.8510    9.5700   76.9300 C   0  0  0  0  0  0  0  0  0  0  0  0
   11.0910   10.0220   75.6760 C   0  0  0  0  0  0  0  0  0  0  0  0
   14.6270   11.0510   78.9050 C   0  0  0  0  0  3  0  0  0  0  0  0
   11.2490   11.5460   75.6770 C   0  0  0  0  0  0  0  0  0  0  0  0
   14.5410   11.2760   80.2680 C   0  0  0  0  0  3  0  0  0  0  0  0
    9.9450   12.2510   75.9980 C   0  0  0  0  0  5  0  0  0  0  0  0
   15.7470   11.5110   80.9530 C   0  0  0  0  0  3  0  0  0  0  0  0
   12.5510   11.0020   79.5870 C   0  0  0  0  0  3  0  0  0  0  0  0
   10.4570   13.6900   71.2400 C   0  0  0  0  0  6  0  0  0  0  0  0
    9.9050   12.6890   72.2580 C   0  0  0  0  0  6  0  0  0  0  0  0
    9.2570   13.3470   73.4710 C   0  0  0  0  0  0  0  0  0  0  0  0
   13.7720   10.5430   76.4810 H   0  0  0  0  0  0  0  0  0  0  0  0
   17.7780   11.2760   78.4010 H   0  0  0  0  0  0  0  0  0  0  0  0
   11.2110    9.3980   77.7940 H   0  0  0  0  0  0  0  0  0  0  0  0
   12.0770   15.0250   71.1860 H   0  0  0  0  0  0  0  0  0  0  0  0
   10.0640    9.6600   75.6380 H   0  0  0  0  0  0  0  0  0  0  0  0
   11.6600   11.9350   74.7470 H   0  0  0  0  0  0  0  0  0  0  0  0
   10.0740   13.3200   76.1610 H   0  0  0  0  0  2  0  0  0  0  0  0
    9.4940   11.8690   76.9120 H   0  0  0  0  0  0  0  0  0  0  0  0
   11.4660   10.9090   79.5580 H   0  0  0  0  0  0  0  0  0  0  0  0
   10.9060   13.1510   70.4070 H   0  0  0  0  0  0  0  0  0  0  0  0
   10.7330   12.0630   72.5860 H   0  0  0  0  0  0  0  0  0  0  0  0
    9.2200   11.9870   71.7830 H   0  0  0  0  0  0  0  0  0  0  0  0
    8.3620   13.9180   73.2270 Hg  0  0  0  0  0  7  0  0  0  0  0  0
    9.9330   14.0420   73.9670 Hg  0  0  0  0  0  9  0  0  0  0  0  0
   12.0910   14.0620   72.5220 H   0  0  0  0  0  0  0  0  0  0  0  0
   10.9490   15.2480   72.3780 H   0  0  0  0  0  2  0  0  0  0  0  0
   14.9800   11.7310   82.8370 H   0  0  0  0  0  0  0  0  0  0  0  0
   16.7120   11.8950   82.7310 H   0  0  0  0  0  0  0  0  0  0  0  0
   12.7760    8.2360   75.7700 H   0  0  0  0  0  0  0  0  0  0  0  0
   12.5190    9.8850   74.3110 H   0  0  0  0  0  0  0  0  0  0  0  0
   11.4920   14.5570   71.8700 N   0  0  0  0  0  5  0  0  0  0  0  0
   16.8900   11.5040   80.2330 N   0  0  0  0  0  2  0  0  0  0  0  0
   15.7430   11.0280   78.1640 N   0  0  0  0  0  2  0  0  0  0  0  0
   15.8230   11.7290   82.2710 N   0  0  0  0  0  0  0  0  0  0  0  0
   13.2200   11.2380   80.6880 N   0  0  0  0  0  2  0  0  0  0  0  0
   13.3360   10.8830   78.4700 N   0  0  0  0  0  0  0  0  0  0  0  0
    8.5580   14.0410   69.8420 O   0  0  0  0  0  1  0  0  0  0  0  0
   12.4870    8.3150   76.7160 O   0  0  0  0  0  0  0  0  0  0  0  0
   11.6440    9.4530   74.4950 O   0  0  0  0  0  0  0  0  0  0  0  0
   12.2460   11.8650   76.6700 O   0  0  0  0  0  0  0  0  0  0  0  0
    9.2920   15.7560   71.0590 O   0  0  0  0  0  0  0  0  0  0  0  0
    8.8170   11.9960   74.6020 S   0  0  0  0  0  4  0  0  0  0  0  0
  1 12  1  0
  1 27  1  0
  1 41  1  0
  1 45  1  0
  2  4  1  0
  2 15  1  0
  2 40  1  0
  2 44  1  0
  3 16  1  0
  3 36  1  0
  3 37  1  0
  4  5  1  0
  4 17  1  0
  4 42  1  0
  5  7  1  0
  5 19  1  0
  5 43  1  0
  6  8  1  0
  6 37  1  0
  6 40  1  0
  7  9  1  0
  7 20  1  0
  7 44  1  0
  8 10  1  0
  8 39  1  0
  9 21  1  0
  9 22  1  0
  9 28  1  0
  9 46  1  0
 10 36  1  0
 10 38  1  0
 11 23  1  0
 11 39  1  0
 11 40  1  0
 12 13  1  0
 12 24  1  0
 12 27  1  0
 12 28  1  0
 12 35  1  0
 13 14  1  0
 13 25  1  0
 13 26  1  0
 13 27  1  0
 13 28  1  0
 14 27  1  0
 14 28  1  0
 14 46  1  0
 18 35  1  0
 21 28  1  0
 27 28  1  0
 27 45  1  0
 27 46  1  0
 28 30  1  0
 28 35  1  0
 28 46  1  0
 29 35  1  0
 30 35  1  0
 31 38  1  0
 32 38  1  0
 33 42  1  0
 34 43  1  0
M  END
$$$$
