5ntc_A_DXE_505
     RDKit          3D

 16 15  0  0  0  0  0  0  0  0999 V2000
   72.1530   22.1310  128.4750 C   0  0  0  0  0  0  0  0  0  0  0  0
   72.2100   22.3660  130.8340 C   0  0  0  0  0  0  0  0  0  0  0  0
   70.7660   21.9330  131.0830 C   0  0  0  0  0  0  0  0  0  0  0  0
   69.5090   21.2530  132.9600 C   0  0  0  0  0  0  0  0  0  0  0  0
   72.1700   22.6550  127.6590 H   0  0  0  0  0  0  0  0  0  0  0  0
   72.8760   21.4840  128.4580 H   0  0  0  0  0  0  0  0  0  0  0  0
   71.3050   21.6670  128.5450 H   0  0  0  0  0  0  0  0  0  0  0  0
   72.4810   22.9930  131.5230 H   0  0  0  0  0  0  0  0  0  0  0  0
   72.7880   21.5880  130.8610 H   0  0  0  0  0  0  0  0  0  0  0  0
   70.6690   20.9910  130.8720 H   0  0  0  0  0  0  0  0  0  0  0  0
   70.1700   22.4550  130.5230 H   0  0  0  0  0  0  0  0  0  0  0  0
   69.8020   20.3420  132.8010 H   0  0  0  0  0  0  0  0  0  0  0  0
   69.4240   21.4030  133.9150 H   0  0  0  0  0  0  0  0  0  0  0  0
   68.6500   21.3950  132.5320 H   0  0  0  0  0  0  0  0  0  0  0  0
   72.3130   22.9800  129.5790 O   0  0  0  0  0  0  0  0  0  0  0  0
   70.4480   22.1450  132.4290 O   0  0  0  0  0  0  0  0  0  0  0  0
  1  5  1  0
  1  6  1  0
  1  7  1  0
  1 15  1  0
  2  3  1  0
  2  8  1  0
  2  9  1  0
  2 15  1  0
  3 10  1  0
  3 11  1  0
  3 16  1  0
  4 12  1  0
  4 13  1  0
  4 14  1  0
  4 16  1  0
M  END
$$$$
