5u4x_A_7VM_502
     RDKit          3D

 34 37  0  0  0  0  0  0  0  0999 V2000
   13.8820   29.4600   18.3310 C   0  0  0  0  0  1  0  0  0  0  0  0
   13.1270   30.6680   20.3880 C   0  0  0  0  0  2  0  0  0  0  0  0
    7.8430   24.6480   20.0070 C   0  0  0  0  0  2  0  0  0  0  0  0
    5.9930   24.1410   18.4550 C   0  0  0  0  0  1  0  0  0  0  0  0
    6.8100   22.3780   19.9180 C   0  0  0  0  0  3  0  0  0  0  0  0
    7.6690   21.9560   21.0630 C   0  0  0  0  0  3  0  0  0  0  0  0
    8.6450   20.9840   20.8840 C   0  0  0  0  0  2  0  0  0  0  0  0
    9.4120   20.5620   21.9530 C   0  0  0  0  0  2  0  0  0  0  0  0
    9.2310   21.1160   23.2100 C   0  0  0  0  0  2  0  0  0  0  0  0
    8.2650   22.1010   23.3900 C   0  0  0  0  0  3  0  0  0  0  0  0
    7.1480   23.6140   24.9160 C   0  0  0  0  0  3  0  0  0  0  0  0
    7.4040   24.9450   24.6350 C   0  0  0  0  0  2  0  0  0  0  0  0
   11.8540   29.9130   20.6540 C   0  0  0  0  0  2  0  0  0  0  0  0
    6.4120   25.8890   24.8530 C   0  0  0  0  0  2  0  0  0  0  0  0
    5.1830   25.5090   25.3530 C   0  0  0  0  0  2  0  0  0  0  0  0
    4.9360   24.1770   25.6320 C   0  0  0  0  0  2  0  0  0  0  0  0
    5.9130   23.2220   25.4080 C   0  0  0  0  0  2  0  0  0  0  0  0
    7.4790   22.5190   22.3250 C   0  0  0  0  0  2  0  0  0  0  0  0
    8.0680   26.9370   21.0000 C   0  0  0  0  0  2  0  0  0  0  0  0
    9.7060   28.9120   22.6780 C   0  0  0  0  0  2  0  0  0  0  0  0
   10.6230   30.1230   22.7890 C   0  0  0  0  0  2  0  0  0  0  0  0
    9.6880   31.0880   20.7770 C   0  0  0  0  0  2  0  0  0  0  0  0
    8.7220   29.9210   20.6130 C   0  0  0  0  0  2  0  0  0  0  0  0
    8.4100   29.2510   21.9450 C   0  0  0  0  0  3  0  0  0  0  0  0
    7.5630   28.0220   21.7090 C   0  0  0  0  0  3  0  0  0  0  0  0
    5.5420   26.9780   21.9520 C   0  0  0  0  0  2  0  0  0  0  0  0
    5.9750   25.8560   21.2650 C   0  0  0  0  0  2  0  0  0  0  0  0
    7.2700   25.8260   20.7660 C   0  0  0  0  0  3  0  0  0  0  0  0
   14.1630   29.8440   19.7100 N   0  0  0  0  0  2  0  0  0  0  0  0
   10.9190   30.6970   21.4720 N   0  0  0  0  0  0  0  0  0  0  0  0
    6.3110   28.0560   22.1860 N   0  0  0  0  0  2  0  0  0  0  0  0
    6.8520   23.6660   19.5300 N   0  0  0  0  0  0  0  0  0  0  0  0
    8.1270   22.6470   24.6790 O   0  0  0  0  0  0  0  0  0  0  0  0
    6.1520   21.5350   19.3320 O   0  0  0  0  0  1  0  0  0  0  0  0
  1 29  1  0
  2 13  1  0
  2 29  1  0
  3 28  1  0
  3 32  1  0
  4 32  1  0
  5  6  1  0
  5 32  1  0
  5 34  1  0
  6  7  1  0
  6 18  1  0
  7  8  1  0
  8  9  1  0
  9 10  1  0
 10 18  1  0
 10 33  1  0
 11 12  1  0
 11 17  1  0
 11 33  1  0
 12 14  1  0
 13 30  1  0
 14 15  1  0
 15 16  1  0
 16 17  1  0
 19 25  1  0
 19 28  1  0
 20 21  1  0
 20 24  1  0
 21 30  1  0
 22 23  1  0
 22 30  1  0
 23 24  1  0
 24 25  1  0
 25 31  1  0
 26 27  1  0
 26 31  1  0
 27 28  1  0
M  END
$$$$
