5u4x_C_7VM_502
     RDKit          3D

 34 37  0  0  0  0  0  0  0  0999 V2000
  -15.0610   30.5530   85.5960 C   0  0  0  0  0  1  0  0  0  0  0  0
  -14.2300   31.5300   83.4700 C   0  0  0  0  0  2  0  0  0  0  0  0
   -9.1450   25.1710   84.0010 C   0  0  0  0  0  2  0  0  0  0  0  0
   -7.3150   24.4440   85.5110 C   0  0  0  0  0  1  0  0  0  0  0  0
   -8.3330   22.8090   84.0250 C   0  0  0  0  0  3  0  0  0  0  0  0
   -9.2080   22.4830   82.8580 C   0  0  0  0  0  3  0  0  0  0  0  0
  -10.2240   21.5480   83.0020 C   0  0  0  0  0  2  0  0  0  0  0  0
  -10.9930   21.1770   81.9090 C   0  0  0  0  0  2  0  0  0  0  0  0
  -10.7630   21.7390   80.6640 C   0  0  0  0  0  2  0  0  0  0  0  0
   -9.7500   22.6820   80.5230 C   0  0  0  0  0  3  0  0  0  0  0  0
   -8.5420   24.1590   79.0140 C   0  0  0  0  0  3  0  0  0  0  0  0
   -8.7450   25.4920   79.3430 C   0  0  0  0  0  2  0  0  0  0  0  0
  -13.0060   30.6660   83.1770 C   0  0  0  0  0  2  0  0  0  0  0  0
   -7.7340   26.4100   79.1040 C   0  0  0  0  0  2  0  0  0  0  0  0
   -6.5410   26.0060   78.5380 C   0  0  0  0  0  2  0  0  0  0  0  0
   -6.3450   24.6750   78.2180 C   0  0  0  0  0  2  0  0  0  0  0  0
   -7.3400   23.7420   78.4580 C   0  0  0  0  0  2  0  0  0  0  0  0
   -8.9780   23.0580   81.6120 C   0  0  0  0  0  2  0  0  0  0  0  0
   -9.2810   27.4610   83.0090 C   0  0  0  0  0  2  0  0  0  0  0  0
  -10.8420   29.5130   81.2740 C   0  0  0  0  0  2  0  0  0  0  0  0
  -11.6700   30.7910   81.1020 C   0  0  0  0  0  2  0  0  0  0  0  0
  -10.7690   31.7130   83.1540 C   0  0  0  0  0  2  0  0  0  0  0  0
   -9.9190   30.4620   83.3910 C   0  0  0  0  0  2  0  0  0  0  0  0
   -9.5690   29.7740   82.0730 C   0  0  0  0  0  3  0  0  0  0  0  0
   -8.7460   28.5310   82.3070 C   0  0  0  0  0  3  0  0  0  0  0  0
   -6.7630   27.4210   82.0380 C   0  0  0  0  0  2  0  0  0  0  0  0
   -7.2270   26.3120   82.7330 C   0  0  0  0  0  2  0  0  0  0  0  0
   -8.5190   26.3250   83.2420 C   0  0  0  0  0  3  0  0  0  0  0  0
  -15.2920   30.8130   84.1750 N   0  0  0  0  0  2  0  0  0  0  0  0
  -11.9980   31.4060   82.3980 N   0  0  0  0  0  0  0  0  0  0  0  0
   -7.4980   28.5280   81.8170 N   0  0  0  0  0  2  0  0  0  0  0  0
   -8.2220   24.0900   84.4260 N   0  0  0  0  0  0  0  0  0  0  0  0
   -9.5450   23.2240   79.2460 O   0  0  0  0  0  0  0  0  0  0  0  0
   -7.8880   21.8770   84.6800 O   0  0  0  0  0  1  0  0  0  0  0  0
  1 29  1  0
  2 13  1  0
  2 29  1  0
  3 28  1  0
  3 32  1  0
  4 32  1  0
  5  6  1  0
  5 32  1  0
  5 34  1  0
  6  7  1  0
  6 18  1  0
  7  8  1  0
  8  9  1  0
  9 10  1  0
 10 18  1  0
 10 33  1  0
 11 12  1  0
 11 17  1  0
 11 33  1  0
 12 14  1  0
 13 30  1  0
 14 15  1  0
 15 16  1  0
 16 17  1  0
 19 25  1  0
 19 28  1  0
 20 21  1  0
 20 24  1  0
 21 30  1  0
 22 23  1  0
 22 30  1  0
 23 24  1  0
 24 25  1  0
 25 31  1  0
 26 27  1  0
 26 31  1  0
 27 28  1  0
M  END
$$$$
