6arj_C_SAH_501
     RDKit          3D

 26 28  0  0  0  0  0  0  0  0999 V2000
   15.6020   14.1350   89.8160 C   0  0  0  0  0  3  0  0  0  0  0  0
   14.5350   22.1390   91.3980 C   0  0  0  0  0  3  0  0  0  0  0  0
   16.7570   24.8480   94.2260 C   0  0  0  0  0  2  0  0  0  0  0  0
   13.1700   22.0010   90.7590 C   0  0  0  0  0  3  0  0  0  0  0  0
   13.0980   20.5030   90.5170 C   0  0  0  0  0  3  0  0  0  0  0  0
   15.8020   24.1340   92.1970 C   0  0  0  0  0  3  0  0  0  0  0  0
   14.5380   20.0580   90.2920 C   0  0  0  0  0  3  0  0  0  0  0  0
   16.2890   25.3620   91.5630 C   0  0  0  0  0  3  0  0  0  0  0  0
   14.8430   19.7450   88.8290 C   0  0  0  0  0  2  0  0  0  0  0  0
   17.0360   26.3220   92.3960 C   0  0  0  0  0  3  0  0  0  0  0  0
   15.2420   24.1660   90.0870 C   0  0  0  0  0  2  0  0  0  0  0  0
   15.5150   15.3040   90.7670 C   0  0  0  0  0  3  0  0  0  0  0  0
   14.6270   16.3920   90.1790 C   0  0  0  0  0  2  0  0  0  0  0  0
   15.1640   17.0100   88.8950 C   0  0  0  0  0  2  0  0  0  0  0  0
   16.9130   15.7670   91.0780 N   0  0  0  0  0  1  0  0  0  0  0  0
   17.2290   25.9940   93.6900 N   0  0  0  0  0  2  0  0  0  0  0  0
   16.0600   23.9280   93.5200 N   0  0  0  0  0  2  0  0  0  0  0  0
   17.4940   27.4840   91.8480 N   0  0  0  0  0  1  0  0  0  0  0  0
   15.9150   25.3230   90.2770 N   0  0  0  0  0  2  0  0  0  0  0  0
   15.1690   23.4660   91.2300 N   0  0  0  0  0  0  0  0  0  0  0  0
   16.6590   13.8850   89.2230 O   0  0  0  0  0  1  0  0  0  0  0  0
   12.1190   22.4870   91.6090 O   0  0  0  0  0  1  0  0  0  0  0  0
   12.5940   19.7790   91.6500 O   0  0  0  0  0  1  0  0  0  0  0  0
   15.3500   21.1520   90.7380 O   0  0  0  0  0  0  0  0  0  0  0  0
   14.6380   13.3890   89.6340 O   0  0  0  0  0  1  0  0  0  0  0  0
   14.0670   18.2510   88.2920 S   0  0  0  0  0  0  0  0  0  0  0  0
  1 12  1  0
  1 21  1  0
  1 25  1  0
  2  4  1  0
  2 20  1  0
  2 24  1  0
  3 16  1  0
  3 17  1  0
  4  5  1  0
  4 22  1  0
  5  7  1  0
  5 23  1  0
  6  8  1  0
  6 17  1  0
  6 20  1  0
  7  9  1  0
  7 24  1  0
  8 10  1  0
  8 19  1  0
  9 26  1  0
 10 16  1  0
 10 18  1  0
 11 19  1  0
 11 20  1  0
 12 13  1  0
 12 15  1  0
 13 14  1  0
 14 26  1  0
M  END
$$$$
