6arj_D_SAH_501
     RDKit          3D

 26 28  0  0  0  0  0  0  0  0999 V2000
  -13.8940   35.7130   71.1820 C   0  0  0  0  0  3  0  0  0  0  0  0
   -9.9820   39.0840   77.5630 C   0  0  0  0  0  3  0  0  0  0  0  0
  -10.4390   43.1400   79.3360 C   0  0  0  0  0  2  0  0  0  0  0  0
   -8.9210   38.0020   77.4180 C   0  0  0  0  0  3  0  0  0  0  0  0
   -9.3910   37.2260   76.1900 C   0  0  0  0  0  3  0  0  0  0  0  0
  -10.3290   40.7820   79.3380 C   0  0  0  0  0  3  0  0  0  0  0  0
  -10.8970   37.5020   76.0970 C   0  0  0  0  0  3  0  0  0  0  0  0
  -10.5610   40.7490   80.7900 C   0  0  0  0  0  3  0  0  0  0  0  0
  -11.7600   36.2800   76.3880 C   0  0  0  0  0  2  0  0  0  0  0  0
  -10.7160   42.0710   81.4530 C   0  0  0  0  0  3  0  0  0  0  0  0
  -10.3480   38.7070   80.0450 C   0  0  0  0  0  2  0  0  0  0  0  0
  -13.2230   36.9110   71.7790 C   0  0  0  0  0  3  0  0  0  0  0  0
  -12.2690   36.4530   72.8900 C   0  0  0  0  0  2  0  0  0  0  0  0
  -12.9040   35.5420   73.9510 C   0  0  0  0  0  2  0  0  0  0  0  0
  -14.2510   37.8760   72.2920 N   0  0  0  0  0  1  0  0  0  0  0  0
  -10.6560   43.1830   80.6730 N   0  0  0  0  0  2  0  0  0  0  0  0
  -10.2800   41.9760   78.6750 N   0  0  0  0  0  2  0  0  0  0  0  0
  -10.9330   42.1560   82.7930 N   0  0  0  0  0  1  0  0  0  0  0  0
  -10.5620   39.4490   81.1620 N   0  0  0  0  0  2  0  0  0  0  0  0
  -10.2060   39.5060   78.9690 N   0  0  0  0  0  0  0  0  0  0  0  0
  -13.2960   34.9610   70.3940 O   0  0  0  0  0  1  0  0  0  0  0  0
   -7.6340   38.6210   77.2790 O   0  0  0  0  0  1  0  0  0  0  0  0
   -8.8040   37.7370   74.9990 O   0  0  0  0  0  1  0  0  0  0  0  0
  -11.1950   38.5130   77.0770 O   0  0  0  0  0  0  0  0  0  0  0  0
  -15.0560   35.4580   71.4850 O   0  0  0  0  0  1  0  0  0  0  0  0
  -11.6520   35.0560   75.1120 S   0  0  0  0  0  0  0  0  0  0  0  0
  1 12  1  0
  1 21  1  0
  1 25  1  0
  2  4  1  0
  2 20  1  0
  2 24  1  0
  3 16  1  0
  3 17  1  0
  4  5  1  0
  4 22  1  0
  5  7  1  0
  5 23  1  0
  6  8  1  0
  6 17  1  0
  6 20  1  0
  7  9  1  0
  7 24  1  0
  8 10  1  0
  8 19  1  0
  9 26  1  0
 10 16  1  0
 10 18  1  0
 11 19  1  0
 11 20  1  0
 12 13  1  0
 12 15  1  0
 13 14  1  0
 14 26  1  0
M  END
$$$$
