6arv_A_SAH_501
     RDKit          3D

 26 28  0  0  0  0  0  0  0  0999 V2000
  -14.5670   15.3130   14.6970 C   0  0  0  0  0  3  0  0  0  0  0  0
  -12.7950   23.3130   13.1810 C   0  0  0  0  0  3  0  0  0  0  0  0
  -14.7110   26.0490   10.2150 C   0  0  0  0  0  2  0  0  0  0  0  0
  -11.4710   23.1150   13.8930 C   0  0  0  0  0  3  0  0  0  0  0  0
  -11.5450   21.6290   14.2130 C   0  0  0  0  0  3  0  0  0  0  0  0
  -13.9210   25.3530   12.3300 C   0  0  0  0  0  3  0  0  0  0  0  0
  -13.0290   21.2850   14.3170 C   0  0  0  0  0  3  0  0  0  0  0  0
  -14.3650   26.6150   12.9280 C   0  0  0  0  0  3  0  0  0  0  0  0
  -13.5110   20.9330   15.7350 C   0  0  0  0  0  2  0  0  0  0  0  0
  -15.0110   27.5870   12.0230 C   0  0  0  0  0  3  0  0  0  0  0  0
  -13.4540   25.3830   14.4680 C   0  0  0  0  0  2  0  0  0  0  0  0
  -14.3340   16.4180   13.7100 C   0  0  0  0  0  3  0  0  0  0  0  0
  -13.4140   17.5140   14.3120 C   0  0  0  0  0  2  0  0  0  0  0  0
  -13.8820   18.1840   15.6290 C   0  0  0  0  0  2  0  0  0  0  0  0
  -15.6740   16.9690   13.2360 N   0  0  0  0  0  1  0  0  0  0  0  0
  -15.1630   27.2250   10.7130 N   0  0  0  0  0  2  0  0  0  0  0  0
  -14.1110   25.1190   11.0070 N   0  0  0  0  0  2  0  0  0  0  0  0
  -15.4690   28.7850   12.5040 N   0  0  0  0  0  1  0  0  0  0  0  0
  -14.0570   26.5740   14.2340 N   0  0  0  0  0  2  0  0  0  0  0  0
  -13.3610   24.6710   13.3240 N   0  0  0  0  0  0  0  0  0  0  0  0
  -13.6940   14.4500   14.9170 O   0  0  0  0  0  1  0  0  0  0  0  0
  -10.3980   23.4830   13.0110 O   0  0  0  0  0  1  0  0  0  0  0  0
  -11.0160   20.8390   13.1510 O   0  0  0  0  0  1  0  0  0  0  0  0
  -13.7080   22.4620   13.8700 O   0  0  0  0  0  0  0  0  0  0  0  0
  -15.6210   15.2460   15.3530 O   0  0  0  0  0  1  0  0  0  0  0  0
  -12.7770   19.4200   16.3030 S   0  0  0  0  0  0  0  0  0  0  0  0
  1 12  1  0
  1 21  1  0
  1 25  1  0
  2  4  1  0
  2 20  1  0
  2 24  1  0
  3 16  1  0
  3 17  1  0
  4  5  1  0
  4 22  1  0
  5  7  1  0
  5 23  1  0
  6  8  1  0
  6 17  1  0
  6 20  1  0
  7  9  1  0
  7 24  1  0
  8 10  1  0
  8 19  1  0
  9 26  1  0
 10 16  1  0
 10 18  1  0
 11 19  1  0
 11 20  1  0
 12 13  1  0
 12 15  1  0
 13 14  1  0
 14 26  1  0
M  END
$$$$
