6dvr_A_P15_502
     RDKit          3D

 19 18  0  0  0  0  0  0  0  0999 V2000
  -48.3680  -24.9260  -18.4840 C   0  0  0  0  0  2  0  0  0  0  0  0
  -46.4610  -27.9020  -29.1530 C   0  0  0  0  0  2  0  0  0  0  0  0
  -45.4650  -29.9980  -28.4940 C   0  0  0  0  0  2  0  0  0  0  0  0
  -44.4020  -30.5140  -27.5250 C   0  0  0  0  0  2  0  0  0  0  0  0
  -48.7280  -26.2530  -19.1220 C   0  0  0  0  0  2  0  0  0  0  0  0
  -48.5260  -26.3930  -21.4780 C   0  0  0  0  0  2  0  0  0  0  0  0
  -49.0770  -25.7190  -22.7320 C   0  0  0  0  0  2  0  0  0  0  0  0
  -51.0480  -25.7130  -24.1140 C   0  0  0  0  0  2  0  0  0  0  0  0
  -50.8410  -26.5310  -25.3820 C   0  0  0  0  0  2  0  0  0  0  0  0
  -49.0360  -25.2630  -26.2970 C   0  0  0  0  0  2  0  0  0  0  0  0
  -47.6500  -25.4170  -26.8940 C   0  0  0  0  0  2  0  0  0  0  0  0
  -46.5050  -26.4260  -28.7550 C   0  0  0  0  0  2  0  0  0  0  0  0
  -49.3350  -25.9680  -20.3950 O   0  0  0  0  0  0  0  0  0  0  0  0
  -50.3400  -26.2980  -23.0140 O   0  0  0  0  0  0  0  0  0  0  0  0
  -49.4670  -26.5130  -25.7760 O   0  0  0  0  0  0  0  0  0  0  0  0
  -47.7590  -26.1250  -28.1310 O   0  0  0  0  0  0  0  0  0  0  0  0
  -45.8950  -28.6880  -28.0950 O   0  0  0  0  0  0  0  0  0  0  0  0
  -43.1980  -30.8500  -28.2210 O   0  0  0  0  0  1  0  0  0  0  0  0
  -47.0090  -24.8900  -18.0670 O   0  0  0  0  0  1  0  0  0  0  0  0
  1  5  1  0
  1 19  1  0
  2 12  1  0
  2 17  1  0
  3  4  1  0
  3 17  1  0
  4 18  1  0
  5 13  1  0
  6  7  1  0
  6 13  1  0
  7 14  1  0
  8  9  1  0
  8 14  1  0
  9 15  1  0
 10 11  1  0
 10 15  1  0
 11 16  1  0
 12 16  1  0
M  END
$$$$
