6dvr_A_HDG_501
     RDKit          3D

 45 49  0  0  0  0  0  0  0  0999 V2000
  -47.3970  -37.9810  -25.2860 C   0  0  0  0  0  3  0  0  0  0  0  0
  -47.6590  -37.2250  -23.9780 C   0  0  0  0  0  3  0  0  0  0  0  0
  -47.1410  -29.6710  -24.3050 C   0  0  0  0  0  2  0  0  0  0  0  0
  -46.4030  -28.9130  -23.2270 C   0  0  0  0  0  3  0  0  0  0  0  0
  -45.8460  -27.6650  -23.4820 C   0  0  0  0  0  2  0  0  0  0  0  0
  -45.1790  -26.9620  -22.4920 C   0  0  0  0  0  2  0  0  0  0  0  0
  -45.0760  -27.5020  -21.2140 C   0  0  0  0  0  3  0  0  0  0  0  0
  -44.0270  -25.5430  -20.2970 C   0  0  0  0  0  1  0  0  0  0  0  0
  -45.6150  -28.7520  -20.9490 C   0  0  0  0  0  2  0  0  0  0  0  0
  -46.2660  -29.4480  -21.9530 C   0  0  0  0  0  2  0  0  0  0  0  0
  -51.0230  -35.3860  -22.1060 C   0  0  0  0  0  2  0  0  0  0  0  0
  -52.1330  -35.5470  -20.0070 C   0  0  0  0  0  2  0  0  0  0  0  0
  -49.1670  -36.9780  -23.9960 C   0  0  0  0  0  3  0  0  0  0  0  0
  -53.0870  -34.8600  -19.0620 C   0  0  0  0  0  3  0  0  0  0  0  0
  -54.4590  -34.9920  -19.2230 C   0  0  0  0  0  2  0  0  0  0  0  0
  -55.3360  -34.2700  -18.4340 C   0  0  0  0  0  2  0  0  0  0  0  0
  -54.8550  -33.4220  -17.4650 C   0  0  0  0  0  2  0  0  0  0  0  0
  -53.4980  -33.3060  -17.2720 C   0  0  0  0  0  2  0  0  0  0  0  0
  -52.6180  -34.0210  -18.0580 C   0  0  0  0  0  2  0  0  0  0  0  0
  -48.7290  -38.6910  -25.4860 C   0  0  0  0  0  3  0  0  0  0  0  0
  -49.2780  -40.3570  -27.3240 C   0  0  0  0  0  3  0  0  0  0  0  0
  -49.5580  -42.5490  -27.4050 C   0  0  0  0  0  2  0  0  0  0  0  0
  -49.8600  -41.3920  -29.3880 C   0  0  0  0  0  3  0  0  0  0  0  0
  -49.5680  -35.5260  -24.1880 C   0  0  0  0  0  2  0  0  0  0  0  0
  -49.5610  -40.2170  -28.6730 C   0  0  0  0  0  3  0  0  0  0  0  0
  -49.1780  -38.2580  -27.9420 C   0  0  0  0  0  2  0  0  0  0  0  0
  -50.9120  -35.1010  -23.5990 C   0  0  0  0  0  3  0  0  0  0  0  0
  -51.1510  -33.5880  -23.8210 C   0  0  0  0  0  2  0  0  0  0  0  0
  -50.9320  -33.1090  -25.2600 C   0  0  0  0  0  2  0  0  0  0  0  0
  -51.4760  -31.6170  -25.4890 C   0  0  0  0  0  3  0  0  0  0  0  0
  -50.6640  -30.6440  -24.6510 C   0  0  0  0  0  3  0  0  0  0  0  0
  -48.6220  -29.4730  -24.1620 C   0  0  0  0  0  2  0  0  0  0  0  0
  -52.8850  -31.4850  -25.1120 N   0  0  0  0  0  1  0  0  0  0  0  0
  -49.4070  -30.3850  -24.9750 N   0  0  0  0  0  2  0  0  0  0  0  0
  -52.3030  -35.1610  -21.4270 N   0  0  0  0  0  2  0  0  0  0  0  0
  -49.0330  -39.0860  -26.8590 N   0  0  0  0  0  0  0  0  0  0  0  0
  -49.2660  -41.5030  -26.6200 N   0  0  0  0  0  2  0  0  0  0  0  0
  -49.8520  -42.5630  -28.7110 N   0  0  0  0  0  2  0  0  0  0  0  0
  -50.1270  -41.4140  -30.7040 N   0  0  0  0  0  1  0  0  0  0  0  0
  -49.4950  -38.8830  -29.0530 N   0  0  0  0  0  2  0  0  0  0  0  0
  -46.3100  -38.8940  -25.2150 O   0  0  0  0  0  1  0  0  0  0  0  0
  -47.2580  -37.9190  -22.7990 O   0  0  0  0  0  1  0  0  0  0  0  0
  -44.5240  -26.8750  -20.1250 O   0  0  0  0  0  0  0  0  0  0  0  0
  -51.1970  -30.1370  -23.6760 O   0  0  0  0  0  1  0  0  0  0  0  0
  -49.7030  -37.7590  -25.0870 O   0  0  0  0  0  0  0  0  0  0  0  0
  1  2  1  0
  1 20  1  0
  1 41  1  0
  2 13  1  0
  2 42  1  0
  3  4  1  0
  3 32  1  0
  4  5  1  0
  4 10  1  0
  5  6  1  0
  6  7  1  0
  7  9  1  0
  7 43  1  0
  8 43  1  0
  9 10  1  0
 11 27  1  0
 11 35  1  0
 12 14  1  0
 12 35  1  0
 13 24  1  0
 13 45  1  0
 14 15  1  0
 14 19  1  0
 15 16  1  0
 16 17  1  0
 17 18  1  0
 18 19  1  0
 20 36  1  0
 20 45  1  0
 21 25  1  0
 21 36  1  0
 21 37  1  0
 22 37  1  0
 22 38  1  0
 23 25  1  0
 23 38  1  0
 23 39  1  0
 24 27  1  0
 25 40  1  0
 26 36  1  0
 26 40  1  0
 27 28  1  0
 28 29  1  0
 29 30  1  0
 30 31  1  0
 30 33  1  0
 31 34  1  0
 31 44  1  0
 32 34  1  0
M  END
$$$$
