6s70_B_KYB_501
     RDKit          3D

 32 34  0  0  0  0  0  0  0  0999 V2000
   -8.9420   11.4940   27.5810 C   0  0  0  0  0  3  0  0  0  0  0  0
   -8.6730   10.8790   26.4490 C   0  0  0  0  0  3  0  0  0  0  0  0
   -9.9420   10.0200   26.2450 C   0  0  0  0  0  3  0  0  0  0  0  0
  -10.2050    8.3180   24.5750 C   0  0  0  0  0  3  0  0  0  0  0  0
  -10.2130    6.0290   24.5700 C   0  0  0  0  0  2  0  0  0  0  0  0
  -10.6030    7.0550   22.5990 C   0  0  0  0  0  3  0  0  0  0  0  0
  -10.4770    8.3240   23.2610 C   0  0  0  0  0  3  0  0  0  0  0  0
  -10.3270   10.3610   23.9600 C   0  0  0  0  0  2  0  0  0  0  0  0
  -10.5600   11.3930   27.8110 C   0  0  0  0  0  3  0  0  0  0  0  0
  -10.8980   12.7740   28.3590 C   0  0  0  0  0  2  0  0  0  0  0  0
  -13.0390   13.0100   29.5150 C   0  0  0  0  0  2  0  0  0  0  0  0
  -12.1400   12.7980   30.7640 C   0  0  0  0  0  2  0  0  0  0  0  0
  -13.0230   12.2720   31.8950 C   0  0  0  0  0  2  0  0  0  0  0  0
  -12.0730   14.7190   28.1450 C   0  0  0  0  0  2  0  0  0  0  0  0
  -13.1400   15.2270   27.1560 C   0  0  0  0  0  2  0  0  0  0  0  0
  -12.7450   16.5490   26.4250 C   0  0  0  0  0  2  0  0  0  0  0  0
  -13.0310   17.7550   27.3780 C   0  0  0  0  0  2  0  0  0  0  0  0
  -12.2930   19.0240   26.9260 C   0  0  0  0  0  2  0  0  0  0  0  0
  -11.0000   20.8280   27.6310 C   0  0  0  0  0  3  0  0  0  0  0  0
  -10.1360    9.6190   25.0060 N   0  0  0  0  0  0  0  0  0  0  0  0
  -10.0990    7.1710   25.2250 N   0  0  0  0  0  2  0  0  0  0  0  0
  -10.4720    5.9770   23.2810 N   0  0  0  0  0  2  0  0  0  0  0  0
  -10.8570    6.9460   21.1570 N   0  0  0  0  0  1  0  0  0  0  0  0
  -10.5460    9.5710   22.8880 N   0  0  0  0  0  2  0  0  0  0  0  0
  -12.2330   13.2530   28.2620 N   0  0  0  0  0  0  0  0  0  0  0  0
  -14.4360   11.8450   31.5420 N   0  0  0  0  0  1  0  0  0  0  0  0
  -11.5950   19.7200   27.9830 N   0  0  0  0  0  2  0  0  0  0  0  0
  -10.3210   21.5310   28.5670 N   0  0  0  0  0  1  0  0  0  0  0  0
  -11.0000   21.3900   26.3740 N   0  0  0  0  0  1  0  0  0  0  0  0
   -8.4170   10.9660   28.8670 O   0  0  0  0  0  1  0  0  0  0  0  0
   -7.4620   10.0850   26.5550 O   0  0  0  0  0  1  0  0  0  0  0  0
  -11.0240   11.0710   26.6650 O   0  0  0  0  0  0  0  0  0  0  0  0
  1  2  1  0
  1  9  1  0
  1 30  1  0
  2  3  1  0
  2 31  1  0
  3 20  1  0
  3 32  1  0
  4  7  1  0
  4 20  1  0
  4 21  1  0
  5 21  1  0
  5 22  1  0
  6  7  1  0
  6 22  1  0
  6 23  1  0
  7 24  1  0
  8 20  1  0
  8 24  1  0
  9 10  1  0
  9 32  1  0
 10 25  1  0
 11 12  1  0
 11 25  1  0
 12 13  1  0
 13 26  1  0
 14 15  1  0
 14 25  1  0
 15 16  1  0
 16 17  1  0
 17 18  1  0
 18 27  1  0
 19 27  1  0
 19 28  1  0
 19 29  1  0
M  END
$$$$
