6s70_C_KYB_501
     RDKit          3D

 32 34  0  0  0  0  0  0  0  0999 V2000
  -11.2340   27.1610   89.8430 C   0  0  0  0  0  3  0  0  0  0  0  0
  -11.3090   25.8750   90.1340 C   0  0  0  0  0  3  0  0  0  0  0  0
  -12.7700   25.7250   90.6920 C   0  0  0  0  0  3  0  0  0  0  0  0
  -13.8760   23.7580   91.4660 C   0  0  0  0  0  3  0  0  0  0  0  0
  -14.7870   23.0180   93.4380 C   0  0  0  0  0  2  0  0  0  0  0  0
  -14.9520   21.6490   91.6420 C   0  0  0  0  0  3  0  0  0  0  0  0
  -14.2940   22.6420   90.8500 C   0  0  0  0  0  3  0  0  0  0  0  0
  -13.3390   23.9080   89.3740 C   0  0  0  0  0  2  0  0  0  0  0  0
  -12.7590   27.6570   89.5410 C   0  0  0  0  0  3  0  0  0  0  0  0
  -12.9330   27.9240   88.0550 C   0  0  0  0  0  2  0  0  0  0  0  0
  -13.7300   30.1470   87.8770 C   0  0  0  0  0  2  0  0  0  0  0  0
  -13.4600   31.1210   89.0050 C   0  0  0  0  0  2  0  0  0  0  0  0
  -14.7030   32.0530   88.9790 C   0  0  0  0  0  2  0  0  0  0  0  0
  -12.4010   29.2030   86.1980 C   0  0  0  0  0  2  0  0  0  0  0  0
  -13.6890   29.0380   85.4130 C   0  0  0  0  0  2  0  0  0  0  0  0
  -13.4440   28.6640   83.8730 C   0  0  0  0  0  2  0  0  0  0  0  0
  -12.3100   29.5050   83.2590 C   0  0  0  0  0  2  0  0  0  0  0  0
  -12.5560   29.7470   81.7690 C   0  0  0  0  0  2  0  0  0  0  0  0
  -10.7010   29.6570   80.2700 C   0  0  0  0  0  3  0  0  0  0  0  0
  -13.2930   24.5430   90.5160 N   0  0  0  0  0  0  0  0  0  0  0  0
  -14.1290   23.9260   92.7430 N   0  0  0  0  0  2  0  0  0  0  0  0
  -15.1870   21.8820   92.8740 N   0  0  0  0  0  2  0  0  0  0  0  0
  -15.4090   20.3980   91.0770 N   0  0  0  0  0  1  0  0  0  0  0  0
  -13.9500   22.7370   89.5910 N   0  0  0  0  0  2  0  0  0  0  0  0
  -12.5680   29.2420   87.6460 N   0  0  0  0  0  0  0  0  0  0  0  0
  -14.7960   32.8430   90.2160 N   0  0  0  0  0  1  0  0  0  0  0  0
  -11.6760   29.0120   80.9060 N   0  0  0  0  0  2  0  0  0  0  0  0
  -10.4130   30.9970   80.4210 N   0  0  0  0  0  1  0  0  0  0  0  0
   -9.9190   28.9480   79.4350 N   0  0  0  0  0  1  0  0  0  0  0  0
  -10.7190   28.1020   90.8810 O   0  0  0  0  0  1  0  0  0  0  0  0
  -10.2990   25.4800   91.0830 O   0  0  0  0  0  1  0  0  0  0  0  0
  -13.5540   26.6840   89.7950 O   0  0  0  0  0  0  0  0  0  0  0  0
  1  2  1  0
  1  9  1  0
  1 30  1  0
  2  3  1  0
  2 31  1  0
  3 20  1  0
  3 32  1  0
  4  7  1  0
  4 20  1  0
  4 21  1  0
  5 21  1  0
  5 22  1  0
  6  7  1  0
  6 22  1  0
  6 23  1  0
  7 24  1  0
  8 20  1  0
  8 24  1  0
  9 10  1  0
  9 32  1  0
 10 25  1  0
 11 12  1  0
 11 25  1  0
 12 13  1  0
 13 26  1  0
 14 15  1  0
 14 25  1  0
 15 16  1  0
 16 17  1  0
 17 18  1  0
 18 27  1  0
 19 27  1  0
 19 28  1  0
 19 29  1  0
M  END
$$$$
