6s74_A_KY8_501
     RDKit          3D

 66157  0  0  0  0  0  0  0  0999 V2000
   11.5350   12.8950   76.1160 C   0  0  0  0  0  7  0  0  0  0  0  0
   11.6570   12.9560   75.9850 C   0  0  0  0  0  7  0  0  0  0  0  0
   11.2650   12.1350   77.1160 C   0  0  0  0  0  7  0  0  0  0  0  0
   11.3350   12.3240   77.0460 C   0  0  0  0  0  7  0  0  0  0  0  0
   12.3480   11.4670   77.1850 C   0  0  0  0  0  7  0  0  0  0  0  0
   12.3740   11.3170   77.1870 C   0  0  0  0  0  7  0  0  0  0  0  0
   12.7750    9.2860   79.0570 C   0  0  0  0  0  7  0  0  0  0  0  0
   12.7840    9.4220   78.9080 C   0  0  0  0  0  7  0  0  0  0  0  0
   12.9220    7.2390   79.0060 C   0  0  0  0  0  5  0  0  0  0  0  0
   12.9420    6.9650   79.0040 C   0  0  0  0  0  5  0  0  0  0  0  0
   13.1740    8.3930   81.0270 C   0  0  0  0  0  7  0  0  0  0  0  0
   13.1870    8.0480   81.1750 C   0  0  0  0  0  7  0  0  0  0  0  0
   12.9600    9.4930   80.2470 C   0  0  0  0  0  7  0  0  0  0  0  0
   12.9900    9.2910   80.5030 C   0  0  0  0  0  7  0  0  0  0  0  0
   12.7490   11.7760   79.6760 C   0  0  0  0  0  5  0  0  0  0  0  0
   12.7520   11.7500   79.9560 C   0  0  0  0  0  5  0  0  0  0  0  0
   13.0320   12.9820   76.0500 C   0  0  0  0  0  7  0  0  0  0  0  0
   13.1050   12.9390   76.0450 C   0  0  0  0  0  7  0  0  0  0  0  0
   13.6400   14.2750   76.3240 C   0  0  0  0  0  5  0  0  0  0  0  0
   13.6910   14.2770   76.4520 C   0  0  0  0  0  5  0  0  0  0  0  0
   14.8220   16.3270   75.6430 C   0  0  0  0  0  5  0  0  0  0  0  0
   15.1530   14.3220   74.4380 C   0  0  0  0  0  5  0  0  0  0  0  0
   13.8160   17.0500   76.6200 C   0  0  0  0  0  0  0  0  0  0  0  0
   14.6550   14.3540   72.9330 C   0  0  0  0  0  5  0  0  0  0  0  0
   14.4730   18.2000   77.5170 C   0  0  0  0  0  5  0  0  0  0  0  0
   15.7450   13.6290   71.9710 C   0  0  0  0  0  5  0  0  0  0  0  0
   14.9070   16.3390   75.8200 C   0  0  0  0  0  5  0  0  0  0  0  0
   15.1090   14.2420   74.3250 C   0  0  0  0  0  5  0  0  0  0  0  0
   14.1520   17.1600   76.8100 C   0  0  0  0  0  5  0  0  0  0  0  0
   14.6200   13.9510   72.9530 C   0  0  0  0  0  5  0  0  0  0  0  0
   15.0670   18.3140   77.3640 C   0  0  0  0  0  0  0  0  0  0  0  0
   15.8680   13.9480   71.9470 C   0  0  0  0  0  5  0  0  0  0  0  0
   14.5660   20.6520   76.6880 C   0  0  0  0  0  3  0  0  0  0  0  0
   16.5150   15.8480   70.6140 C   0  0  0  0  0  3  0  0  0  0  0  0
   14.0830   23.0320   75.9050 C   0  0  0  0  0  2  0  0  0  0  0  0
   18.9180   16.6320   70.6190 C   0  0  0  0  0  2  0  0  0  0  0  0
   13.7310   23.3700   77.2700 C   0  0  0  0  0  2  0  0  0  0  0  0
   18.5120   17.6750   69.6470 C   0  0  0  0  0  2  0  0  0  0  0  0
   13.8100   22.3680   78.3120 C   0  0  0  0  0  2  0  0  0  0  0  0
   17.1080   17.7620   69.2030 C   0  0  0  0  0  2  0  0  0  0  0  0
   12.5180   10.8690   78.6590 N   0  0  0  0  0  7  0  0  0  0  0  0
   12.5470   10.8490   78.5640 N   0  0  0  0  0  7  0  0  0  0  0  0
   12.6890    8.3680   78.2670 N   0  0  0  0  0  5  0  0  0  0  0  0
   12.7230    8.1190   78.3200 N   0  0  0  0  0  5  0  0  0  0  0  0
   13.1370    7.2450   80.3780 N   0  0  0  0  0  5  0  0  0  0  0  0
   13.1470    6.9380   80.3900 N   0  0  0  0  0  5  0  0  0  0  0  0
   13.4290    8.4280   82.5010 N   0  0  0  0  0  0  0  0  0  0  0  0
   13.4360    7.9910   82.6790 N   0  0  0  0  0  0  0  0  0  0  0  0
   12.9520   10.9580   80.7080 N   0  0  0  0  0  5  0  0  0  0  0  0
   12.9720   10.8570   81.0540 N   0  0  0  0  0  5  0  0  0  0  0  0
   14.0620   15.0750   75.1080 N   0  0  0  0  0  7  0  0  0  0  0  0
   14.1220   15.1360   75.2900 N   0  0  0  0  0  7  0  0  0  0  0  0
   15.4200   18.9310   76.6940 N   0  0  0  0  0  0  0  0  0  0  0  0
   16.9510   14.4570   71.7590 N   0  0  0  0  0  4  0  0  0  0  0  0
   14.9420   19.4360   76.3750 N   0  0  0  0  0  4  0  0  0  0  0  0
   15.6050   15.0720   70.9670 N   0  0  0  0  0  4  0  0  0  0  0  0
   14.4810   21.6630   75.6550 N   0  0  0  0  0  2  0  0  0  0  0  0
   17.9100   15.7140   71.0960 N   0  0  0  0  0  0  0  0  0  0  0  0
   14.2300   21.0190   78.0680 N   0  0  0  0  0  2  0  0  0  0  0  0
   16.0990   16.8590   69.6840 N   0  0  0  0  0  2  0  0  0  0  0  0
   10.8940   12.4630   74.8900 O   0  0  0  0  0  3  0  0  0  0  0  0
   11.2790   12.3500   74.7640 O   0  0  0  0  0  3  0  0  0  0  0  0
    9.8560   11.5120   77.0920 O   0  0  0  0  0  3  0  0  0  0  0  0
   10.0530   11.5590   77.0440 O   0  0  0  0  0  3  0  0  0  0  0  0
   13.4160   12.1570   76.9640 O   0  0  0  0  0  5  0  0  0  0  0  0
   13.4600   12.0780   76.8200 O   0  0  0  0  0  5  0  0  0  0  0  0
  1  2  1  0
  1  3  1  0
  1  4  1  0
  1 17  1  0
  1 18  1  0
  1 61  1  0
  1 62  1  0
  2  3  1  0
  2  4  1  0
  2 17  1  0
  2 18  1  0
  2 61  1  0
  2 62  1  0
  3  4  1  0
  3  5  1  0
  3  6  1  0
  3 63  1  0
  3 64  1  0
  4  5  1  0
  4  6  1  0
  4 63  1  0
  4 64  1  0
  5  6  1  0
  5 41  1  0
  5 42  1  0
  5 65  1  0
  5 66  1  0
  6 41  1  0
  6 42  1  0
  6 65  1  0
  6 66  1  0
  7  8  1  0
  7 13  1  0
  7 14  1  0
  7 41  1  0
  7 42  1  0
  7 43  1  0
  7 44  1  0
  8 13  1  0
  8 14  1  0
  8 41  1  0
  8 42  1  0
  8 43  1  0
  8 44  1  0
  9 10  1  0
  9 43  1  0
  9 44  1  0
  9 45  1  0
  9 46  1  0
 10 43  1  0
 10 44  1  0
 10 45  1  0
 10 46  1  0
 11 12  1  0
 11 13  1  0
 11 14  1  0
 11 45  1  0
 11 46  1  0
 11 47  1  0
 11 48  1  0
 12 13  1  0
 12 14  1  0
 12 45  1  0
 12 46  1  0
 12 47  1  0
 12 48  1  0
 13 14  1  0
 13 49  1  0
 13 50  1  0
 14 49  1  0
 14 50  1  0
 15 16  1  0
 15 41  1  0
 15 42  1  0
 15 49  1  0
 15 50  1  0
 16 41  1  0
 16 42  1  0
 16 49  1  0
 16 50  1  0
 17 18  1  0
 17 19  1  0
 17 20  1  0
 17 65  1  0
 17 66  1  0
 18 19  1  0
 18 20  1  0
 18 65  1  0
 18 66  1  0
 19 20  1  0
 19 51  1  0
 19 52  1  0
 20 51  1  0
 20 52  1  0
 21 23  1  0
 21 27  1  0
 21 29  1  0
 21 51  1  0
 21 52  1  0
 22 24  1  0
 22 28  1  0
 22 30  1  0
 22 51  1  0
 22 52  1  0
 23 25  1  0
 23 27  1  0
 23 29  1  0
 24 26  1  0
 24 28  1  0
 24 30  1  0
 24 32  1  0
 25 29  1  0
 25 31  1  0
 25 53  1  0
 25 55  1  0
 26 30  1  0
 26 32  1  0
 26 54  1  0
 26 56  1  0
 27 29  1  0
 27 51  1  0
 27 52  1  0
 28 30  1  0
 28 51  1  0
 28 52  1  0
 29 31  1  0
 30 32  1  0
 31 53  1  0
 31 55  1  0
 32 54  1  0
 32 56  1  0
 33 55  1  0
 33 57  1  0
 33 59  1  0
 34 56  1  0
 34 58  1  0
 34 60  1  0
 35 37  1  0
 35 57  1  0
 36 38  1  0
 36 58  1  0
 37 39  1  0
 38 40  1  0
 39 59  1  0
 40 60  1  0
 41 42  1  0
 43 44  1  0
 45 46  1  0
 47 48  1  0
 49 50  1  0
 51 52  1  0
 53 55  1  0
 54 56  1  0
 54 58  1  0
 61 62  1  0
 63 64  1  0
 65 66  1  0
M  END
$$$$
