6s7b_A_KYH_501
     RDKit          3D

 31 33  0  0  0  0  0  0  0  0999 V2000
  -26.3700   12.9110  -27.9660 C   0  0  0  0  0  3  0  0  0  0  0  0
  -26.5760   12.2960  -26.8940 C   0  0  0  0  0  3  0  0  0  0  0  0
  -25.2360   11.3710  -26.7630 C   0  0  0  0  0  3  0  0  0  0  0  0
  -24.9430    9.5750  -25.0890 C   0  0  0  0  0  3  0  0  0  0  0  0
  -24.7990    7.2420  -25.1520 C   0  0  0  0  0  2  0  0  0  0  0  0
  -24.5850    8.3210  -23.0910 C   0  0  0  0  0  3  0  0  0  0  0  0
  -24.7450    9.5720  -23.7460 C   0  0  0  0  0  3  0  0  0  0  0  0
  -24.9740   11.6300  -24.3860 C   0  0  0  0  0  2  0  0  0  0  0  0
  -24.8210   13.1490  -27.9880 C   0  0  0  0  0  3  0  0  0  0  0  0
  -24.4500   14.4750  -27.6490 C   0  0  0  0  0  2  0  0  0  0  0  0
  -23.0140   14.2260  -29.6440 C   0  0  0  0  0  2  0  0  0  0  0  0
  -23.4000   14.3460  -31.1580 C   0  0  0  0  0  2  0  0  0  0  0  0
  -22.1500   14.7290  -32.0150 C   0  0  0  0  0  2  0  0  0  0  0  0
  -22.7900   16.1990  -28.3610 C   0  0  0  0  0  2  0  0  0  0  0  0
  -23.4680   17.3980  -27.6030 C   0  0  0  0  0  2  0  0  0  0  0  0
  -22.5210   18.6130  -27.3510 C   0  0  0  0  0  2  0  0  0  0  0  0
  -23.0790   19.4620  -26.1430 C   0  0  0  0  0  2  0  0  0  0  0  0
  -23.9740   21.6430  -27.0780 C   0  0  0  0  0  3  0  0  0  0  0  0
  -25.0860   10.8700  -25.4460 N   0  0  0  0  0  0  0  0  0  0  0  0
  -24.9720    8.3930  -25.7970 N   0  0  0  0  0  2  0  0  0  0  0  0
  -24.6070    7.2010  -23.8260 N   0  0  0  0  0  2  0  0  0  0  0  0
  -24.3940    8.2660  -21.6400 N   0  0  0  0  0  1  0  0  0  0  0  0
  -24.7630   10.8390  -23.3270 N   0  0  0  0  0  2  0  0  0  0  0  0
  -23.7660   15.1770  -28.8050 N   0  0  0  0  0  0  0  0  0  0  0  0
  -21.0760   13.6790  -31.9940 N   0  0  0  0  0  1  0  0  0  0  0  0
  -23.1320   20.9620  -26.2460 N   0  0  0  0  0  2  0  0  0  0  0  0
  -23.9290   22.9900  -27.0450 N   0  0  0  0  0  1  0  0  0  0  0  0
  -24.8020   21.0300  -27.9130 N   0  0  0  0  0  1  0  0  0  0  0  0
  -26.7320   12.1340  -29.2340 O   0  0  0  0  0  1  0  0  0  0  0  0
  -27.7100   11.3680  -26.8800 O   0  0  0  0  0  1  0  0  0  0  0  0
  -24.2590   12.1770  -26.9790 O   0  0  0  0  0  0  0  0  0  0  0  0
  1  2  1  0
  1  9  1  0
  1 29  1  0
  2  3  1  0
  2 30  1  0
  3 19  1  0
  3 31  1  0
  4  7  1  0
  4 19  1  0
  4 20  1  0
  5 20  1  0
  5 21  1  0
  6  7  1  0
  6 21  1  0
  6 22  1  0
  7 23  1  0
  8 19  1  0
  8 23  1  0
  9 10  1  0
  9 31  1  0
 10 24  1  0
 11 12  1  0
 11 24  1  0
 12 13  1  0
 13 25  1  0
 14 15  1  0
 14 24  1  0
 15 16  1  0
 16 17  1  0
 17 26  1  0
 18 26  1  0
 18 27  1  0
 18 28  1  0
M  END
$$$$
