7ppq_B_LSK_501
     RDKit          3D

 82 86  0  0  0  0  0  0  0  0999 V2000
   33.8110   25.1860  129.7860 C   0  0  0  0  0  3  0  0  0  0  0  0
   32.9680   22.0540  127.9360 C   0  0  0  0  0  3  0  0  0  0  0  0
   34.9510   25.7850  130.5320 C   0  0  0  0  0  3  0  0  0  0  0  0
   36.0960   24.3510  132.0350 C   0  0  0  0  0  0  0  0  0  0  0  0
   28.8940   20.5320  126.5650 C   0  0  0  0  0  3  0  0  0  0  0  0
   26.8020   19.7590  127.6230 C   0  0  0  0  0  0  0  0  0  0  0  0
   25.8010   19.7090  126.4450 C   0  0  0  0  0  0  0  0  0  0  0  0
   25.7280   18.3580  125.6770 C   0  0  0  0  0  0  0  0  0  0  0  0
   24.2350   21.0410  121.9630 C   0  0  0  0  0  3  0  0  0  0  0  0
   24.5380   22.3320  119.8660 C   0  0  0  0  0  0  0  0  0  0  0  0
   24.6410   21.9550  118.3940 C   0  0  0  0  0  0  0  0  0  0  0  0
   32.6310   25.9120  129.6330 C   0  0  0  0  0  3  0  0  0  0  0  0
   26.0460   22.0490  117.8010 C   0  0  0  0  0  0  0  0  0  0  0  0
   26.1140   23.5330  117.4350 C   0  0  0  0  0  0  0  0  0  0  0  0
   24.7220   23.6680  116.7910 C   0  0  0  0  0  0  0  0  0  0  0  0
   24.0260   25.8810  117.8000 C   0  0  0  0  0  3  0  0  0  0  0  0
   23.1580   26.8660  116.1440 C   0  0  0  0  0  3  0  0  0  0  0  0
   22.5360   27.7140  115.2160 C   0  0  0  0  0  3  0  0  0  0  0  0
   22.8500   26.0390  113.6570 C   0  0  0  0  0  3  0  0  0  0  0  0
   23.5740   25.6320  115.6820 C   0  0  0  0  0  3  0  0  0  0  0  0
   25.5440   18.5180  124.1400 C   0  0  0  0  0  0  0  0  0  0  0  0
   24.2570   19.2550  123.7370 C   0  0  0  0  0  0  0  0  0  0  0  0
   31.5680   25.3760  128.9440 C   0  0  0  0  0  3  0  0  0  0  0  0
   31.6530   24.0710  128.3580 C   0  0  0  0  0  3  0  0  0  0  0  0
   32.8660   23.3460  128.5120 C   0  0  0  0  0  3  0  0  0  0  0  0
   33.9360   23.9420  129.2190 C   0  0  0  0  0  3  0  0  0  0  0  0
   30.5900   23.4640  127.6290 C   0  0  0  0  0  3  0  0  0  0  0  0
   30.7210   22.1960  127.1010 C   0  0  0  0  0  3  0  0  0  0  0  0
   31.9260   21.5100  127.2440 C   0  0  0  0  0  3  0  0  0  0  0  0
   26.7950   21.7500  118.5200 H   0  0  0  0  0  0  0  0  0  0  0  0
   25.9810   20.5150  125.7180 H   0  0  0  0  0  0  0  0  0  0  0  0
   24.7980   20.0450  126.7440 H   0  0  0  0  0  0  0  0  0  0  0  0
   32.5630   26.9070  130.0850 H   0  0  0  0  0  0  0  0  0  0  0  0
   33.9070   21.5020  128.0590 H   0  0  0  0  0  0  0  0  0  0  0  0
   34.8530   23.3590  129.3380 H   0  0  0  0  0  0  0  0  0  0  0  0
   30.3410   26.9510  129.1850 H   0  0  0  0  0  0  0  0  0  0  0  0
   36.1360   23.5320  131.3130 H   0  0  0  0  0  0  0  0  0  0  0  0
   35.9710   23.9110  133.0210 H   0  0  0  0  0  0  0  0  0  0  0  0
   37.0260   24.9240  132.0230 H   0  0  0  0  0  0  0  0  0  0  0  0
   24.6530   23.2510  115.7910 H   0  0  0  0  0  0  0  0  0  0  0  0
   24.1820   20.9810  118.1870 H   0  0  0  0  0  0  0  0  0  0  0  0
   24.3680   25.6780  118.7770 H   0  0  0  0  0  0  0  0  0  0  0  0
   22.7120   25.7310  112.6240 H   0  0  0  0  0  0  0  0  0  0  0  0
   26.4300   19.0390  123.7510 H   0  0  0  0  0  0  0  0  0  0  0  0
   25.6010   17.5580  123.6170 H   0  0  0  0  0  0  0  0  0  0  0  0
   23.3630   18.6750  123.9390 H   0  0  0  0  0  0  0  0  0  0  0  0
   24.0620   20.0620  124.4250 H   0  0  0  0  0  0  0  0  0  0  0  0
   29.6470   23.9990  127.4860 H   0  0  0  0  0  0  0  0  0  0  0  0
   32.0410   20.5090  126.8100 H   0  0  0  0  0  0  0  0  0  0  0  0
   29.5560   22.1130  125.4390 H   0  0  0  0  0  0  0  0  0  0  0  0
   27.6170   21.7020  127.7650 H   0  0  0  0  0  0  0  0  0  0  0  0
   25.5490   22.5100  120.2530 H   0  0  0  0  0  0  0  0  0  0  0  0
   24.7360   19.0950  121.6930 H   0  0  0  0  0  0  0  0  0  0  0  0
   22.9920   20.9260  120.3210 H   0  0  0  0  0  0  0  0  0  0  0  0
   24.9100   21.9490  123.7060 H   0  0  0  0  0  0  0  0  0  0  0  0
   21.6240   29.5510  114.8360 H   0  0  0  0  0  0  0  0  0  0  0  0
   22.1590   29.3230  116.4540 H   0  0  0  0  0  0  0  0  0  0  0  0
   25.8950   20.3640  116.6830 H   0  0  0  0  0  0  0  0  0  0  0  0
   27.2810   23.2270  115.8150 H   0  0  0  0  0  0  0  0  0  0  0  0
   24.1190   23.3180  120.0520 H   0  0  0  0  0  0  0  0  0  0  0  0
   26.2440   24.1660  118.3210 H   0  0  0  0  0  0  0  0  0  0  0  0
   26.6030   17.7370  125.9090 H   0  0  0  0  0  0  0  0  0  0  0  0
   24.9170   17.7420  126.0820 H   0  0  0  0  0  0  0  0  0  0  0  0
   26.2550   19.9200  128.5590 H   0  0  0  0  0  0  0  0  0  0  0  0
   27.2310   18.7770  127.8360 H   0  0  0  0  0  0  0  0  0  0  0  0
   29.6880   21.6200  126.3220 N   0  0  0  0  0  0  0  0  0  0  0  0
   23.4540   25.1600  114.4450 N   0  0  0  0  0  2  0  0  0  0  0  0
   27.8280   20.7700  127.3710 N   0  0  0  0  0  0  0  0  0  0  0  0
   24.2600   19.7200  122.3530 N   0  0  0  0  0  0  0  0  0  0  0  0
   23.8380   21.3570  120.7030 N   0  0  0  0  0  0  0  0  0  0  0  0
   24.5770   22.0240  122.7470 N   0  0  0  0  0  2  0  0  0  0  0  0
   24.1520   25.0080  116.7560 N   0  0  0  0  0  0  0  0  0  0  0  0
   23.4570   27.0130  117.4860 N   0  0  0  0  0  2  0  0  0  0  0  0
   22.0760   28.9390  115.5140 N   0  0  0  0  0  0  0  0  0  0  0  0
   22.3920   27.2490  113.9610 N   0  0  0  0  0  2  0  0  0  0  0  0
   30.3840   26.0430  128.7680 O   0  0  0  0  0  0  0  0  0  0  0  0
   35.0440   25.3180  131.7800 O   0  0  0  0  0  0  0  0  0  0  0  0
   35.7050   26.6020  130.0730 O   0  0  0  0  0  1  0  0  0  0  0  0
   29.0930   19.4400  126.0380 O   0  0  0  0  0  1  0  0  0  0  0  0
   26.2340   21.3040  116.6080 O   0  0  0  0  0  0  0  0  0  0  0  0
   27.2020   23.8680  116.5730 O   0  0  0  0  0  0  0  0  0  0  0  0
   23.8620   22.8510  117.5660 O   0  0  0  0  0  0  0  0  0  0  0  0
  1  3  1  0
  1 12  1  0
  1 26  1  0
  2 25  1  0
  2 29  1  0
  2 34  1  0
  3 77  1  0
  3 78  1  0
  4 37  1  0
  4 38  1  0
  4 39  1  0
  4 77  1  0
  5 66  1  0
  5 68  1  0
  5 79  1  0
  6  7  1  0
  6 64  1  0
  6 65  1  0
  6 68  1  0
  7  8  1  0
  7 31  1  0
  7 32  1  0
  8 21  1  0
  8 62  1  0
  8 63  1  0
  9 69  1  0
  9 70  1  0
  9 71  1  0
 10 11  1  0
 10 52  1  0
 10 60  1  0
 10 70  1  0
 11 13  1  0
 11 41  1  0
 11 82  1  0
 12 23  1  0
 12 33  1  0
 13 14  1  0
 13 30  1  0
 13 80  1  0
 14 15  1  0
 14 61  1  0
 14 81  1  0
 15 40  1  0
 15 72  1  0
 15 82  1  0
 16 42  1  0
 16 72  1  0
 16 73  1  0
 17 18  1  0
 17 20  1  0
 17 73  1  0
 18 74  1  0
 18 75  1  0
 19 43  1  0
 19 67  1  0
 19 75  1  0
 20 67  1  0
 20 72  1  0
 21 22  1  0
 21 44  1  0
 21 45  1  0
 22 46  1  0
 22 47  1  0
 22 69  1  0
 23 24  1  0
 23 76  1  0
 24 25  1  0
 24 27  1  0
 25 26  1  0
 26 35  1  0
 27 28  1  0
 27 48  1  0
 28 29  1  0
 28 66  1  0
 29 49  1  0
 36 76  1  0
 50 66  1  0
 51 68  1  0
 53 69  1  0
 54 70  1  0
 55 71  1  0
 56 74  1  0
 57 74  1  0
 58 80  1  0
 59 81  1  0
M  END
$$$$
