7ppy_D_7ZH_501
     RDKit          3D

 79 83  0  0  0  0  0  0  0  0999 V2000
   43.0920   25.0500  181.4980 C   0  0  0  0  0  3  0  0  0  0  0  0
   44.0020   21.8910  183.2650 C   0  0  0  0  0  3  0  0  0  0  0  0
   41.8790   25.7590  180.9960 C   0  0  0  0  0  3  0  0  0  0  0  0
   47.7050   19.8390  184.3940 C   0  0  0  0  0  3  0  0  0  0  0  0
   49.3280   18.2070  185.3130 C   0  0  0  0  0  0  0  0  0  0  0  0
   50.8320   18.1170  185.5220 C   0  0  0  0  0  0  0  0  0  0  0  0
   51.2980   17.4800  186.8380 C   0  0  0  0  0  0  0  0  0  0  0  0
   51.3070   18.3670  188.0800 C   0  0  0  0  0  0  0  0  0  0  0  0
   52.5010   20.3800  188.9590 C   0  0  0  0  0  3  0  0  0  0  0  0
   39.5330   25.6010  180.6810 C   0  0  0  0  0  0  0  0  0  0  0  0
   51.8230   21.1340  191.2460 C   0  0  0  0  0  0  0  0  0  0  0  0
   44.3480   25.6440  181.3600 C   0  0  0  0  0  3  0  0  0  0  0  0
   51.7910   20.6850  192.6980 C   0  0  0  0  0  0  0  0  0  0  0  0
   50.4620   20.9300  193.4010 C   0  0  0  0  0  0  0  0  0  0  0  0
   50.5750   22.4140  193.7270 C   0  0  0  0  0  0  0  0  0  0  0  0
   52.0260   22.4490  194.2280 C   0  0  0  0  0  0  0  0  0  0  0  0
   52.7070   24.5710  193.0250 C   0  0  0  0  0  3  0  0  0  0  0  0
   53.7170   25.6490  194.5480 C   0  0  0  0  0  3  0  0  0  0  0  0
   54.4260   26.5450  195.3710 C   0  0  0  0  0  3  0  0  0  0  0  0
   54.1980   24.9920  197.0720 C   0  0  0  0  0  3  0  0  0  0  0  0
   53.3130   24.4530  195.1230 C   0  0  0  0  0  3  0  0  0  0  0  0
   45.4710   25.0130  181.8380 C   0  0  0  0  0  3  0  0  0  0  0  0
   45.3840   23.7500  182.4890 C   0  0  0  0  0  3  0  0  0  0  0  0
   44.1010   23.1490  182.6250 C   0  0  0  0  0  3  0  0  0  0  0  0
   42.9700   23.8280  182.1190 C   0  0  0  0  0  3  0  0  0  0  0  0
   46.5150   23.0600  183.0030 C   0  0  0  0  0  3  0  0  0  0  0  0
   46.3820   21.8220  183.5970 C   0  0  0  0  0  3  0  0  0  0  0  0
   45.1120   21.2600  183.7410 C   0  0  0  0  0  3  0  0  0  0  0  0
   44.4150   26.6140  180.8700 H   0  0  0  0  0  0  0  0  0  0  0  0
   49.0160   17.4790  184.5660 H   0  0  0  0  0  0  0  0  0  0  0  0
   51.2450   17.5480  184.6910 H   0  0  0  0  0  0  0  0  0  0  0  0
   51.2920   19.0970  185.4090 H   0  0  0  0  0  0  0  0  0  0  0  0
   52.2910   17.0630  186.6780 H   0  0  0  0  0  0  0  0  0  0  0  0
   50.6910   16.5970  187.0320 H   0  0  0  0  0  0  0  0  0  0  0  0
   50.2920   18.6210  188.3810 H   0  0  0  0  0  0  0  0  0  0  0  0
   51.7020   17.8160  188.9310 H   0  0  0  0  0  0  0  0  0  0  0  0
   52.4080   19.7830  186.9910 H   0  0  0  0  0  0  0  0  0  0  0  0
   52.4590   19.2200  190.6430 H   0  0  0  0  0  0  0  0  0  0  0  0
   53.5160   21.6440  187.8040 H   0  0  0  0  0  0  0  0  0  0  0  0
   41.9980   23.3520  182.2410 H   0  0  0  0  0  0  0  0  0  0  0  0
   39.3630   26.4400  181.3540 H   0  0  0  0  0  0  0  0  0  0  0  0
   39.6260   25.9560  179.6560 H   0  0  0  0  0  0  0  0  0  0  0  0
   38.7060   24.8970  180.7620 H   0  0  0  0  0  0  0  0  0  0  0  0
   52.5320   21.9450  191.1190 H   0  0  0  0  0  0  0  0  0  0  0  0
   50.8620   21.5990  191.0340 H   0  0  0  0  0  0  0  0  0  0  0  0
   52.1150   19.6520  192.8130 H   0  0  0  0  0  0  0  0  0  0  0  0
   49.6130   20.7440  192.7530 H   0  0  0  0  0  0  0  0  0  0  0  0
   49.5280   19.5970  194.4750 H   0  0  0  0  0  0  0  0  0  0  0  0
   50.4650   22.9950  192.8120 H   0  0  0  0  0  0  0  0  0  0  0  0
   48.8680   23.2420  194.1340 H   0  0  0  0  0  0  0  0  0  0  0  0
   47.4930   23.5240  182.8850 H   0  0  0  0  0  0  0  0  0  0  0  0
   52.1250   22.1120  195.2580 H   0  0  0  0  0  0  0  0  0  0  0  0
   52.2640   24.2930  192.0730 H   0  0  0  0  0  0  0  0  0  0  0  0
   55.3810   28.3360  195.6050 H   0  0  0  0  0  0  0  0  0  0  0  0
   54.7360   28.0550  194.0120 H   0  0  0  0  0  0  0  0  0  0  0  0
   54.4150   24.7610  198.1140 H   0  0  0  0  0  0  0  0  0  0  0  0
   44.9820   20.2960  184.2280 H   0  0  0  0  0  0  0  0  0  0  0  0
   43.0200   21.4330  183.3750 H   0  0  0  0  0  0  0  0  0  0  0  0
   46.6530   26.4240  181.2670 H   0  0  0  0  0  0  0  0  0  0  0  0
   48.2490   21.8350  184.3920 H   0  0  0  0  0  0  0  0  0  0  0  0
   49.5860   20.2780  185.1660 H   0  0  0  0  0  0  0  0  0  0  0  0
   48.8130   17.9090  186.2250 H   0  0  0  0  0  0  0  0  0  0  0  0
   47.5230   21.1750  184.1340 N   0  0  0  0  0  0  0  0  0  0  0  0
   53.5240   24.0630  196.3870 N   0  0  0  0  0  2  0  0  0  0  0  0
   48.9040   19.5560  184.9570 N   0  0  0  0  0  0  0  0  0  0  0  0
   52.1220   19.5640  187.9390 N   0  0  0  0  0  0  0  0  0  0  0  0
   52.1230   20.0960  190.2570 N   0  0  0  0  0  0  0  0  0  0  0  0
   53.2330   21.4330  188.7560 N   0  0  0  0  0  2  0  0  0  0  0  0
   52.6690   23.7580  194.1270 N   0  0  0  0  0  0  0  0  0  0  0  0
   53.3240   25.7110  193.2200 N   0  0  0  0  0  2  0  0  0  0  0  0
   54.8760   27.7330  194.9640 N   0  0  0  0  0  0  0  0  0  0  0  0
   54.6490   26.1780  196.6530 N   0  0  0  0  0  2  0  0  0  0  0  0
   46.7180   25.5470  181.7280 O   0  0  0  0  0  0  0  0  0  0  0  0
   46.8730   18.9720  184.1320 O   0  0  0  0  0  1  0  0  0  0  0  0
   40.8080   24.9550  180.9330 O   0  0  0  0  0  0  0  0  0  0  0  0
   41.8500   26.9350  180.7190 O   0  0  0  0  0  1  0  0  0  0  0  0
   50.3660   20.1230  194.5660 O   0  0  0  0  0  0  0  0  0  0  0  0
   49.6210   22.8810  194.6710 O   0  0  0  0  0  0  0  0  0  0  0  0
   52.7350   21.5090  193.4320 O   0  0  0  0  0  0  0  0  0  0  0  0
  1  3  1  0
  1 12  1  0
  1 25  1  0
  2 24  1  0
  2 28  1  0
  2 58  1  0
  3 75  1  0
  3 76  1  0
  4 63  1  0
  4 65  1  0
  4 74  1  0
  5  6  1  0
  5 30  1  0
  5 62  1  0
  5 65  1  0
  6  7  1  0
  6 31  1  0
  6 32  1  0
  7  8  1  0
  7 33  1  0
  7 34  1  0
  8 35  1  0
  8 36  1  0
  8 66  1  0
  9 66  1  0
  9 67  1  0
  9 68  1  0
 10 41  1  0
 10 42  1  0
 10 43  1  0
 10 75  1  0
 11 13  1  0
 11 44  1  0
 11 45  1  0
 11 67  1  0
 12 22  1  0
 12 29  1  0
 13 14  1  0
 13 46  1  0
 13 79  1  0
 14 15  1  0
 14 47  1  0
 14 77  1  0
 15 16  1  0
 15 49  1  0
 15 78  1  0
 16 52  1  0
 16 69  1  0
 16 79  1  0
 17 53  1  0
 17 69  1  0
 17 70  1  0
 18 19  1  0
 18 21  1  0
 18 70  1  0
 19 71  1  0
 19 72  1  0
 20 56  1  0
 20 64  1  0
 20 72  1  0
 21 64  1  0
 21 69  1  0
 22 23  1  0
 22 73  1  0
 23 24  1  0
 23 26  1  0
 24 25  1  0
 25 40  1  0
 26 27  1  0
 26 51  1  0
 27 28  1  0
 27 63  1  0
 28 57  1  0
 37 66  1  0
 38 67  1  0
 39 68  1  0
 48 77  1  0
 50 78  1  0
 54 71  1  0
 55 71  1  0
 59 73  1  0
 60 63  1  0
 61 65  1  0
M  END
$$$$
