7ppy_A_7ZH_501
     RDKit          3D

 79 83  0  0  0  0  0  0  0  0999 V2000
   43.5200   24.7280  125.1360 C   0  0  0  0  0  3  0  0  0  0  0  0
   44.8110   25.7280  128.4950 C   0  0  0  0  0  3  0  0  0  0  0  0
   42.2930   24.1670  124.5070 C   0  0  0  0  0  3  0  0  0  0  0  0
   48.9180   26.7160  129.9120 C   0  0  0  0  0  3  0  0  0  0  0  0
   50.8460   27.2180  131.3320 C   0  0  0  0  0  0  0  0  0  0  0  0
   52.0060   28.1800  131.3850 C   0  0  0  0  0  0  0  0  0  0  0  0
   51.6020   29.6100  131.6690 C   0  0  0  0  0  0  0  0  0  0  0  0
   52.6610   30.5560  131.1550 C   0  0  0  0  0  0  0  0  0  0  0  0
   51.9160   32.8380  130.5670 C   0  0  0  0  0  3  0  0  0  0  0  0
   40.3640   25.5180  124.3090 C   0  0  0  0  0  0  0  0  0  0  0  0
   51.0370   35.1330  130.1710 C   0  0  0  0  0  0  0  0  0  0  0  0
   44.6140   25.0500  124.3330 C   0  0  0  0  0  3  0  0  0  0  0  0
   50.7170   36.3920  130.9520 C   0  0  0  0  0  0  0  0  0  0  0  0
   49.2360   36.6010  131.2540 C   0  0  0  0  0  0  0  0  0  0  0  0
   48.7570   37.3430  130.0010 C   0  0  0  0  0  0  0  0  0  0  0  0
   49.9570   38.2660  129.7580 C   0  0  0  0  0  0  0  0  0  0  0  0
   50.2000   37.9570  127.2620 C   0  0  0  0  0  3  0  0  0  0  0  0
   50.3990   39.9510  126.5700 C   0  0  0  0  0  3  0  0  0  0  0  0
   50.5550   41.1640  125.8720 C   0  0  0  0  0  3  0  0  0  0  0  0
   50.4010   42.2330  127.9170 C   0  0  0  0  0  3  0  0  0  0  0  0
   50.2600   40.0320  127.9440 C   0  0  0  0  0  3  0  0  0  0  0  0
   45.7520   25.5820  124.8890 C   0  0  0  0  0  3  0  0  0  0  0  0
   45.8430   25.8190  126.2840 C   0  0  0  0  0  3  0  0  0  0  0  0
   44.7260   25.4900  127.1010 C   0  0  0  0  0  3  0  0  0  0  0  0
   43.5730   24.9440  126.4930 C   0  0  0  0  0  3  0  0  0  0  0  0
   46.9970   26.3730  126.8970 C   0  0  0  0  0  3  0  0  0  0  0  0
   47.0480   26.5770  128.2580 C   0  0  0  0  0  3  0  0  0  0  0  0
   45.9410   26.2610  129.0460 C   0  0  0  0  0  3  0  0  0  0  0  0
   44.5460   24.8680  123.2620 H   0  0  0  0  0  0  0  0  0  0  0  0
   50.3210   27.2190  132.2860 H   0  0  0  0  0  0  0  0  0  0  0  0
   52.5320   28.1320  130.4330 H   0  0  0  0  0  0  0  0  0  0  0  0
   52.7490   27.8540  132.1110 H   0  0  0  0  0  0  0  0  0  0  0  0
   50.6320   29.8190  131.2210 H   0  0  0  0  0  0  0  0  0  0  0  0
   51.4440   29.7480  132.7370 H   0  0  0  0  0  0  0  0  0  0  0  0
   52.8470   30.4030  130.0940 H   0  0  0  0  0  0  0  0  0  0  0  0
   53.6190   30.3210  131.6170 H   0  0  0  0  0  0  0  0  0  0  0  0
   52.5720   32.2340  132.4270 H   0  0  0  0  0  0  0  0  0  0  0  0
   52.3420   34.4800  131.6750 H   0  0  0  0  0  0  0  0  0  0  0  0
   51.8110   31.5970  129.0010 H   0  0  0  0  0  0  0  0  0  0  0  0
   42.7260   24.7020  127.1330 H   0  0  0  0  0  0  0  0  0  0  0  0
   39.5410   25.9310  124.8910 H   0  0  0  0  0  0  0  0  0  0  0  0
   39.9780   24.8880  123.5090 H   0  0  0  0  0  0  0  0  0  0  0  0
   40.9590   26.3300  123.8940 H   0  0  0  0  0  0  0  0  0  0  0  0
   50.1240   34.6920  129.7730 H   0  0  0  0  0  0  0  0  0  0  0  0
   51.6040   35.4060  129.2940 H   0  0  0  0  0  0  0  0  0  0  0  0
   51.3140   36.4650  131.8600 H   0  0  0  0  0  0  0  0  0  0  0  0
   48.7140   35.6570  131.3500 H   0  0  0  0  0  0  0  0  0  0  0  0
   48.4720   36.8210  133.0380 H   0  0  0  0  0  0  0  0  0  0  0  0
   48.6230   36.6400  129.1800 H   0  0  0  0  0  0  0  0  0  0  0  0
   46.8300   37.5030  129.7960 H   0  0  0  0  0  0  0  0  0  0  0  0
   47.8460   26.6190  126.2610 H   0  0  0  0  0  0  0  0  0  0  0  0
   49.9570   39.1390  130.4090 H   0  0  0  0  0  0  0  0  0  0  0  0
   50.1270   36.8730  127.2910 H   0  0  0  0  0  0  0  0  0  0  0  0
   50.7110   40.4010  123.9760 H   0  0  0  0  0  0  0  0  0  0  0  0
   50.8120   42.1370  124.0720 H   0  0  0  0  0  0  0  0  0  0  0  0
   50.4080   43.1910  128.4350 H   0  0  0  0  0  0  0  0  0  0  0  0
   45.9660   26.4280  130.1220 H   0  0  0  0  0  0  0  0  0  0  0  0
   43.9570   25.4820  129.1240 H   0  0  0  0  0  0  0  0  0  0  0  0
   46.6700   25.7070  123.2040 H   0  0  0  0  0  0  0  0  0  0  0  0
   48.4630   28.0250  128.3790 H   0  0  0  0  0  0  0  0  0  0  0  0
   50.1670   28.3670  129.7160 H   0  0  0  0  0  0  0  0  0  0  0  0
   51.2160   26.2000  131.2180 H   0  0  0  0  0  0  0  0  0  0  0  0
   48.1990   27.1580  128.8360 N   0  0  0  0  0  0  0  0  0  0  0  0
   50.2500   41.1490  128.6790 N   0  0  0  0  0  2  0  0  0  0  0  0
   49.9510   27.5170  130.2260 N   0  0  0  0  0  0  0  0  0  0  0  0
   52.3800   31.9480  131.4720 N   0  0  0  0  0  0  0  0  0  0  0  0
   51.7070   34.1200  130.9700 N   0  0  0  0  0  0  0  0  0  0  0  0
   51.6610   32.5430  129.3320 N   0  0  0  0  0  2  0  0  0  0  0  0
   50.1210   38.7370  128.3830 N   0  0  0  0  0  0  0  0  0  0  0  0
   50.3600   38.6310  126.1510 N   0  0  0  0  0  2  0  0  0  0  0  0
   50.7090   41.2430  124.5420 N   0  0  0  0  0  0  0  0  0  0  0  0
   50.5510   42.3080  126.5930 N   0  0  0  0  0  2  0  0  0  0  0  0
   46.8470   25.9120  124.1590 O   0  0  0  0  0  0  0  0  0  0  0  0
   48.6690   25.6850  130.5320 O   0  0  0  0  0  1  0  0  0  0  0  0
   41.1770   24.6110  125.0920 O   0  0  0  0  0  0  0  0  0  0  0  0
   42.2930   23.4200  123.5650 O   0  0  0  0  0  1  0  0  0  0  0  0
   49.0750   37.3520  132.4540 O   0  0  0  0  0  0  0  0  0  0  0  0
   47.5420   38.0590  130.2090 O   0  0  0  0  0  0  0  0  0  0  0  0
   51.1030   37.5060  130.1110 O   0  0  0  0  0  0  0  0  0  0  0  0
  1  3  1  0
  1 12  1  0
  1 25  1  0
  2 24  1  0
  2 28  1  0
  2 58  1  0
  3 75  1  0
  3 76  1  0
  4 63  1  0
  4 65  1  0
  4 74  1  0
  5  6  1  0
  5 30  1  0
  5 62  1  0
  5 65  1  0
  6  7  1  0
  6 31  1  0
  6 32  1  0
  7  8  1  0
  7 33  1  0
  7 34  1  0
  8 35  1  0
  8 36  1  0
  8 66  1  0
  9 66  1  0
  9 67  1  0
  9 68  1  0
 10 41  1  0
 10 42  1  0
 10 43  1  0
 10 75  1  0
 11 13  1  0
 11 44  1  0
 11 45  1  0
 11 67  1  0
 12 22  1  0
 12 29  1  0
 13 14  1  0
 13 46  1  0
 13 79  1  0
 14 15  1  0
 14 47  1  0
 14 77  1  0
 15 16  1  0
 15 49  1  0
 15 78  1  0
 16 52  1  0
 16 69  1  0
 16 79  1  0
 17 53  1  0
 17 69  1  0
 17 70  1  0
 18 19  1  0
 18 21  1  0
 18 70  1  0
 19 71  1  0
 19 72  1  0
 20 56  1  0
 20 64  1  0
 20 72  1  0
 21 64  1  0
 21 69  1  0
 22 23  1  0
 22 73  1  0
 23 24  1  0
 23 26  1  0
 24 25  1  0
 25 40  1  0
 26 27  1  0
 26 51  1  0
 27 28  1  0
 27 63  1  0
 28 57  1  0
 37 66  1  0
 38 67  1  0
 39 68  1  0
 48 77  1  0
 50 78  1  0
 54 71  1  0
 55 71  1  0
 59 73  1  0
 60 63  1  0
 61 65  1  0
M  END
$$$$
