7ppy_B_7ZH_501
     RDKit          3D

 79 83  0  0  0  0  0  0  0  0999 V2000
   33.3890   25.2610  129.3960 C   0  0  0  0  0  3  0  0  0  0  0  0
   32.3590   22.0530  127.7840 C   0  0  0  0  0  3  0  0  0  0  0  0
   34.6020   25.9160  129.9580 C   0  0  0  0  0  3  0  0  0  0  0  0
   28.5290   20.2960  126.4380 C   0  0  0  0  0  3  0  0  0  0  0  0
   26.8100   18.8110  125.5030 C   0  0  0  0  0  0  0  0  0  0  0  0
   25.2940   18.7820  125.5020 C   0  0  0  0  0  0  0  0  0  0  0  0
   24.6630   18.6990  124.1220 C   0  0  0  0  0  0  0  0  0  0  0  0
   24.0200   19.9820  123.6280 C   0  0  0  0  0  0  0  0  0  0  0  0
   24.4920   21.2860  121.5750 C   0  0  0  0  0  3  0  0  0  0  0  0
   36.4360   25.2190  131.2790 C   0  0  0  0  0  0  0  0  0  0  0  0
   24.0930   22.1800  119.2740 C   0  0  0  0  0  0  0  0  0  0  0  0
   32.1800   25.9560  129.3890 C   0  0  0  0  0  3  0  0  0  0  0  0
   24.5060   21.8690  117.8470 C   0  0  0  0  0  0  0  0  0  0  0  0
   25.9800   22.0900  117.5070 C   0  0  0  0  0  0  0  0  0  0  0  0
   26.0100   23.5820  117.1800 C   0  0  0  0  0  0  0  0  0  0  0  0
   24.6640   23.7560  116.4640 C   0  0  0  0  0  0  0  0  0  0  0  0
   23.9900   25.8530  117.7180 C   0  0  0  0  0  3  0  0  0  0  0  0
   23.0740   27.0030  116.1890 C   0  0  0  0  0  3  0  0  0  0  0  0
   22.4200   27.9400  115.3660 C   0  0  0  0  0  3  0  0  0  0  0  0
   22.6910   26.4370  113.6300 C   0  0  0  0  0  3  0  0  0  0  0  0
   23.4790   25.8200  115.5920 C   0  0  0  0  0  3  0  0  0  0  0  0
   31.0470   25.3750  128.8730 C   0  0  0  0  0  3  0  0  0  0  0  0
   31.0810   24.0640  128.3250 C   0  0  0  0  0  3  0  0  0  0  0  0
   32.3180   23.3600  128.3290 C   0  0  0  0  0  3  0  0  0  0  0  0
   33.4590   23.9900  128.8730 C   0  0  0  0  0  3  0  0  0  0  0  0
   29.9390   23.4300  127.7750 C   0  0  0  0  0  3  0  0  0  0  0  0
   30.0100   22.1500  127.2690 C   0  0  0  0  0  3  0  0  0  0  0  0
   31.2350   21.4780  127.2640 C   0  0  0  0  0  3  0  0  0  0  0  0
   32.1530   26.9590  129.8120 H   0  0  0  0  0  0  0  0  0  0  0  0
   27.1900   18.0410  126.1730 H   0  0  0  0  0  0  0  0  0  0  0  0
   24.9370   19.6740  126.0150 H   0  0  0  0  0  0  0  0  0  0  0  0
   24.9260   17.9650  126.1200 H   0  0  0  0  0  0  0  0  0  0  0  0
   23.9280   17.8950  124.1300 H   0  0  0  0  0  0  0  0  0  0  0  0
   25.3980   18.3530  123.3990 H   0  0  0  0  0  0  0  0  0  0  0  0
   24.3920   20.8420  124.1800 H   0  0  0  0  0  0  0  0  0  0  0  0
   22.9490   19.9770  123.8220 H   0  0  0  0  0  0  0  0  0  0  0  0
   24.1250   19.2710  121.6540 H   0  0  0  0  0  0  0  0  0  0  0  0
   24.9870   20.3700  119.8430 H   0  0  0  0  0  0  0  0  0  0  0  0
   24.5270   22.4970  123.1660 H   0  0  0  0  0  0  0  0  0  0  0  0
   34.3950   23.4340  128.8650 H   0  0  0  0  0  0  0  0  0  0  0  0
   37.1960   24.4430  131.3560 H   0  0  0  0  0  0  0  0  0  0  0  0
   35.7180   25.1210  132.0920 H   0  0  0  0  0  0  0  0  0  0  0  0
   36.9110   26.1980  131.3130 H   0  0  0  0  0  0  0  0  0  0  0  0
   24.3580   23.1980  119.5560 H   0  0  0  0  0  0  0  0  0  0  0  0
   23.0080   22.1420  119.3080 H   0  0  0  0  0  0  0  0  0  0  0  0
   24.1800   20.8760  117.5410 H   0  0  0  0  0  0  0  0  0  0  0  0
   26.6160   21.8900  118.3640 H   0  0  0  0  0  0  0  0  0  0  0  0
   27.0130   20.6000  116.7820 H   0  0  0  0  0  0  0  0  0  0  0  0
   26.0690   24.1670  118.0960 H   0  0  0  0  0  0  0  0  0  0  0  0
   27.7990   24.2830  116.9170 H   0  0  0  0  0  0  0  0  0  0  0  0
   28.9990   23.9790  127.7790 H   0  0  0  0  0  0  0  0  0  0  0  0
   24.7180   23.5200  115.4030 H   0  0  0  0  0  0  0  0  0  0  0  0
   24.3840   25.5380  118.6810 H   0  0  0  0  0  0  0  0  0  0  0  0
   21.5100   29.7550  115.1470 H   0  0  0  0  0  0  0  0  0  0  0  0
   22.0770   29.4110  116.7580 H   0  0  0  0  0  0  0  0  0  0  0  0
   22.5170   26.2440  112.5720 H   0  0  0  0  0  0  0  0  0  0  0  0
   31.3150   20.4720  126.8560 H   0  0  0  0  0  0  0  0  0  0  0  0
   33.3040   21.5120  127.7830 H   0  0  0  0  0  0  0  0  0  0  0  0
   29.9590   26.8960  129.2480 H   0  0  0  0  0  0  0  0  0  0  0  0
   28.1660   22.3300  126.4460 H   0  0  0  0  0  0  0  0  0  0  0  0
   26.7030   20.8980  125.6410 H   0  0  0  0  0  0  0  0  0  0  0  0
   27.1980   18.5380  124.5230 H   0  0  0  0  0  0  0  0  0  0  0  0
   28.8280   21.6070  126.7080 N   0  0  0  0  0  0  0  0  0  0  0  0
   23.3210   25.4770  114.3110 N   0  0  0  0  0  2  0  0  0  0  0  0
   27.3240   20.1250  125.8570 N   0  0  0  0  0  0  0  0  0  0  0  0
   24.2050   20.1280  122.1930 N   0  0  0  0  0  0  0  0  0  0  0  0
   24.6750   21.2530  120.2340 N   0  0  0  0  0  0  0  0  0  0  0  0
   24.6430   22.4350  122.1610 N   0  0  0  0  0  2  0  0  0  0  0  0
   24.0720   25.0830  116.5880 N   0  0  0  0  0  0  0  0  0  0  0  0
   23.4050   27.0110  117.5350 N   0  0  0  0  0  2  0  0  0  0  0  0
   21.9710   29.1200  115.7910 N   0  0  0  0  0  0  0  0  0  0  0  0
   22.2400   27.6160  114.0690 N   0  0  0  0  0  2  0  0  0  0  0  0
   29.8420   26.0030  128.8480 O   0  0  0  0  0  0  0  0  0  0  0  0
   29.2710   19.3540  126.7010 O   0  0  0  0  0  1  0  0  0  0  0  0
   35.6240   25.0640  130.0890 O   0  0  0  0  0  0  0  0  0  0  0  0
   34.6710   27.0920  130.2290 O   0  0  0  0  0  1  0  0  0  0  0  0
   26.3890   21.2770  116.4110 O   0  0  0  0  0  0  0  0  0  0  0  0
   27.0870   23.9280  116.3220 O   0  0  0  0  0  0  0  0  0  0  0  0
   23.7740   22.8150  117.0370 O   0  0  0  0  0  0  0  0  0  0  0  0
  1  3  1  0
  1 12  1  0
  1 25  1  0
  2 24  1  0
  2 28  1  0
  2 58  1  0
  3 75  1  0
  3 76  1  0
  4 63  1  0
  4 65  1  0
  4 74  1  0
  5  6  1  0
  5 30  1  0
  5 62  1  0
  5 65  1  0
  6  7  1  0
  6 31  1  0
  6 32  1  0
  7  8  1  0
  7 33  1  0
  7 34  1  0
  8 35  1  0
  8 36  1  0
  8 66  1  0
  9 66  1  0
  9 67  1  0
  9 68  1  0
 10 41  1  0
 10 42  1  0
 10 43  1  0
 10 75  1  0
 11 13  1  0
 11 44  1  0
 11 45  1  0
 11 67  1  0
 12 22  1  0
 12 29  1  0
 13 14  1  0
 13 46  1  0
 13 79  1  0
 14 15  1  0
 14 47  1  0
 14 77  1  0
 15 16  1  0
 15 49  1  0
 15 78  1  0
 16 52  1  0
 16 69  1  0
 16 79  1  0
 17 53  1  0
 17 69  1  0
 17 70  1  0
 18 19  1  0
 18 21  1  0
 18 70  1  0
 19 71  1  0
 19 72  1  0
 20 56  1  0
 20 64  1  0
 20 72  1  0
 21 64  1  0
 21 69  1  0
 22 23  1  0
 22 73  1  0
 23 24  1  0
 23 26  1  0
 24 25  1  0
 25 40  1  0
 26 27  1  0
 26 51  1  0
 27 28  1  0
 27 63  1  0
 28 57  1  0
 37 66  1  0
 38 67  1  0
 39 68  1  0
 48 77  1  0
 50 78  1  0
 54 71  1  0
 55 71  1  0
 59 73  1  0
 60 63  1  0
 61 65  1  0
M  END
$$$$
