7pu8_B_4R7_501
     RDKit          3D

 82 86  0  0  0  0  0  0  0  0999 V2000
   33.9040   26.0630  129.9040 C   0  0  0  0  0  3  0  0  0  0  0  0
   33.9200   22.6730  128.3410 C   0  0  0  0  0  3  0  0  0  0  0  0
   34.8440   27.1440  130.3060 C   0  0  0  0  0  3  0  0  0  0  0  0
   35.4160   26.4560  132.5040 C   0  0  0  0  0  0  0  0  0  0  0  0
   29.4850   20.5090  128.0360 C   0  0  0  0  0  3  0  0  0  0  0  0
   27.5680   18.9830  127.8370 C   0  0  0  0  0  0  0  0  0  0  0  0
   26.5960   19.7490  126.9140 C   0  0  0  0  0  0  0  0  0  0  0  0
   26.1560   18.9460  125.6480 C   0  0  0  0  0  0  0  0  0  0  0  0
   23.9350   20.5440  123.3950 C   0  0  0  0  0  3  0  0  0  0  0  0
   24.9050   22.0250  120.8520 C   0  0  0  0  0  0  0  0  0  0  0  0
   24.8580   21.8010  119.3440 C   0  0  0  0  0  0  0  0  0  0  0  0
   32.5420   26.2380  130.1360 C   0  0  0  0  0  3  0  0  0  0  0  0
   26.2100   21.9270  118.6320 C   0  0  0  0  0  0  0  0  0  0  0  0
   26.2330   23.4310  118.3040 C   0  0  0  0  0  0  0  0  0  0  0  0
   24.7830   23.5630  117.8140 C   0  0  0  0  0  0  0  0  0  0  0  0
   24.1960   25.8200  118.7940 C   0  0  0  0  0  3  0  0  0  0  0  0
   23.3300   26.8100  117.1360 C   0  0  0  0  0  3  0  0  0  0  0  0
   22.7220   27.6660  116.2030 C   0  0  0  0  0  3  0  0  0  0  0  0
   22.9300   25.9480  114.6720 C   0  0  0  0  0  3  0  0  0  0  0  0
   23.6840   25.5510  116.6910 C   0  0  0  0  0  3  0  0  0  0  0  0
   24.6670   19.1120  125.3200 C   0  0  0  0  0  0  0  0  0  0  0  0
   23.5480   22.1760  121.5360 C   0  0  0  0  0  0  0  0  0  0  0  0
   31.6480   25.2610  129.7880 C   0  0  0  0  0  3  0  0  0  0  0  0
   32.0820   24.0490  129.1620 C   0  0  0  0  0  3  0  0  0  0  0  0
   33.4740   23.8730  128.9410 C   0  0  0  0  0  3  0  0  0  0  0  0
   34.3630   24.9060  129.3230 C   0  0  0  0  0  3  0  0  0  0  0  0
   31.2010   22.9990  128.7860 C   0  0  0  0  0  3  0  0  0  0  0  0
   31.6590   21.8450  128.1800 C   0  0  0  0  0  3  0  0  0  0  0  0
   33.0380   21.6940  127.9860 C   0  0  0  0  0  3  0  0  0  0  0  0
   32.1860   27.1570  130.5980 H   0  0  0  0  0  0  0  0  0  0  0  0
   26.4010   17.8940  125.7750 H   0  0  0  0  0  0  0  0  0  0  0  0
   25.5110   22.9140  121.0210 H   0  0  0  0  0  0  0  0  0  0  0  0
   25.4790   21.2360  121.3360 H   0  0  0  0  0  0  0  0  0  0  0  0
   27.0020   21.7110  119.3310 H   0  0  0  0  0  0  0  0  0  0  0  0
   24.6250   23.1130  116.8350 H   0  0  0  0  0  0  0  0  0  0  0  0
   22.7500   25.6340  113.6450 H   0  0  0  0  0  0  0  0  0  0  0  0
   22.7980   21.6170  120.9790 H   0  0  0  0  0  0  0  0  0  0  0  0
   23.2120   23.2070  121.4440 H   0  0  0  0  0  0  0  0  0  0  0  0
   27.3990   17.9120  127.7380 H   0  0  0  0  0  0  0  0  0  0  0  0
   27.3200   19.1980  128.8750 H   0  0  0  0  0  0  0  0  0  0  0  0
   35.4260   24.7610  129.1370 H   0  0  0  0  0  0  0  0  0  0  0  0
   24.4040   20.8400  119.1080 H   0  0  0  0  0  0  0  0  0  0  0  0
   26.3890   23.9980  119.2210 H   0  0  0  0  0  0  0  0  0  0  0  0
   24.5780   25.6100  119.7910 H   0  0  0  0  0  0  0  0  0  0  0  0
   24.0810   19.0330  126.2350 H   0  0  0  0  0  0  0  0  0  0  0  0
   24.3250   18.2700  124.7200 H   0  0  0  0  0  0  0  0  0  0  0  0
   30.1380   23.1390  128.9700 H   0  0  0  0  0  0  0  0  0  0  0  0
   33.4270   20.7870  127.5240 H   0  0  0  0  0  0  0  0  0  0  0  0
   31.3860   19.9840  127.3870 H   0  0  0  0  0  0  0  0  0  0  0  0
   29.5420   18.5880  127.1910 H   0  0  0  0  0  0  0  0  0  0  0  0
   24.5750   21.2290  125.2360 H   0  0  0  0  0  0  0  0  0  0  0  0
   34.9850   22.5380  128.1600 H   0  0  0  0  0  0  0  0  0  0  0  0
   22.8450   22.2420  123.4970 H   0  0  0  0  0  0  0  0  0  0  0  0
   24.0220   18.6620  122.7450 H   0  0  0  0  0  0  0  0  0  0  0  0
   21.8850   29.5050  115.7750 H   0  0  0  0  0  0  0  0  0  0  0  0
   22.4460   29.3040  117.4110 H   0  0  0  0  0  0  0  0  0  0  0  0
   30.1170   24.9220  130.8440 H   0  0  0  0  0  0  0  0  0  0  0  0
   25.5100   20.9610  117.0900 H   0  0  0  0  0  0  0  0  0  0  0  0
   27.4050   23.0530  116.8010 H   0  0  0  0  0  0  0  0  0  0  0  0
   36.2860   26.2790  133.1340 H   0  0  0  0  0  0  0  0  0  0  0  0
   34.7300   25.6140  132.5890 H   0  0  0  0  0  0  0  0  0  0  0  0
   34.9160   27.3770  132.8000 H   0  0  0  0  0  0  0  0  0  0  0  0
   27.0740   20.6790  126.6100 H   0  0  0  0  0  0  0  0  0  0  0  0
   25.7190   20.0780  127.4690 H   0  0  0  0  0  0  0  0  0  0  0  0
   26.7570   19.2550  124.7940 H   0  0  0  0  0  0  0  0  0  0  0  0
   30.8360   20.7260  127.8080 N   0  0  0  0  0  0  0  0  0  0  0  0
   23.5140   25.0610  115.4660 N   0  0  0  0  0  2  0  0  0  0  0  0
   28.9800   19.3120  127.6270 N   0  0  0  0  0  0  0  0  0  0  0  0
   24.4000   20.3980  124.6800 N   0  0  0  0  0  0  0  0  0  0  0  0
   23.5690   21.7910  122.9470 N   0  0  0  0  0  0  0  0  0  0  0  0
   23.7750   19.6130  122.4930 N   0  0  0  0  0  2  0  0  0  0  0  0
   24.2490   24.9190  117.7680 N   0  0  0  0  0  0  0  0  0  0  0  0
   23.6650   26.9690  118.4700 N   0  0  0  0  0  2  0  0  0  0  0  0
   22.3200   28.9190  116.4800 N   0  0  0  0  0  0  0  0  0  0  0  0
   22.5370   27.1850  114.9570 N   0  0  0  0  0  2  0  0  0  0  0  0
   30.3100   25.4010  129.9960 O   0  0  0  0  0  0  0  0  0  0  0  0
   35.8020   26.7040  131.1240 O   0  0  0  0  0  0  0  0  0  0  0  0
   34.7420   28.2920  129.9670 O   0  0  0  0  0  1  0  0  0  0  0  0
   28.7540   21.3300  128.5580 O   0  0  0  0  0  1  0  0  0  0  0  0
   26.4140   21.1410  117.4600 O   0  0  0  0  0  0  0  0  0  0  0  0
   27.2020   23.8560  117.3480 O   0  0  0  0  0  0  0  0  0  0  0  0
   24.0160   22.8050  118.7310 O   0  0  0  0  0  0  0  0  0  0  0  0
  1  3  1  0
  1 12  1  0
  1 26  1  0
  2 25  1  0
  2 29  1  0
  2 52  1  0
  3 77  1  0
  3 78  1  0
  4 60  1  0
  4 61  1  0
  4 62  1  0
  4 77  1  0
  5 66  1  0
  5 68  1  0
  5 79  1  0
  6  7  1  0
  6 39  1  0
  6 40  1  0
  6 68  1  0
  7  8  1  0
  7 63  1  0
  7 64  1  0
  8 21  1  0
  8 31  1  0
  8 65  1  0
  9 69  1  0
  9 70  1  0
  9 71  1  0
 10 11  1  0
 10 22  1  0
 10 32  1  0
 10 33  1  0
 11 13  1  0
 11 42  1  0
 11 82  1  0
 12 23  1  0
 12 30  1  0
 13 14  1  0
 13 34  1  0
 13 80  1  0
 14 15  1  0
 14 43  1  0
 14 81  1  0
 15 35  1  0
 15 72  1  0
 15 82  1  0
 16 44  1  0
 16 72  1  0
 16 73  1  0
 17 18  1  0
 17 20  1  0
 17 73  1  0
 18 74  1  0
 18 75  1  0
 19 36  1  0
 19 67  1  0
 19 75  1  0
 20 67  1  0
 20 72  1  0
 21 45  1  0
 21 46  1  0
 21 69  1  0
 22 37  1  0
 22 38  1  0
 22 70  1  0
 23 24  1  0
 23 76  1  0
 24 25  1  0
 24 27  1  0
 25 26  1  0
 26 41  1  0
 27 28  1  0
 27 47  1  0
 28 29  1  0
 28 66  1  0
 29 48  1  0
 49 66  1  0
 50 68  1  0
 51 69  1  0
 53 70  1  0
 54 71  1  0
 55 74  1  0
 56 74  1  0
 57 76  1  0
 58 80  1  0
 59 81  1  0
M  END
$$$$
