7puq_A_867_501
     RDKit          3D

 85 89  0  0  0  0  0  0  0  0999 V2000
   42.1780   25.2460  126.4220 C   0  0  0  0  0  3  0  0  0  0  0  0
   43.8510   25.3550  129.7650 C   0  0  0  0  0  3  0  0  0  0  0  0
   40.8120   25.2320  125.8100 C   0  0  0  0  0  3  0  0  0  0  0  0
   39.5670   23.4450  126.7450 C   0  0  0  0  0  0  0  0  0  0  0  0
   48.6630   26.0380  129.6940 C   0  0  0  0  0  3  0  0  0  0  0  0
   51.0710   26.4110  130.1690 C   0  0  0  0  0  0  0  0  0  0  0  0
   51.0430   27.8600  130.7050 C   0  0  0  0  0  0  0  0  0  0  0  0
   52.3600   28.3770  131.3380 C   0  0  0  0  0  0  0  0  0  0  0  0
   52.6750   31.4110  130.8370 C   0  0  0  0  0  3  0  0  0  0  0  0
   51.2170   34.7760  130.2060 C   0  0  0  0  0  0  0  0  0  0  0  0
   50.9540   35.9610  131.1240 C   0  0  0  0  0  0  0  0  0  0  0  0
   43.2890   25.2170  125.5780 C   0  0  0  0  0  3  0  0  0  0  0  0
   49.4970   36.1590  131.5360 C   0  0  0  0  0  0  0  0  0  0  0  0
   48.9580   36.9630  130.3500 C   0  0  0  0  0  0  0  0  0  0  0  0
   50.1360   37.9400  130.1950 C   0  0  0  0  0  0  0  0  0  0  0  0
   50.1810   37.9320  127.6690 C   0  0  0  0  0  3  0  0  0  0  0  0
   50.4680   39.9800  127.2280 C   0  0  0  0  0  3  0  0  0  0  0  0
   50.6510   41.2610  126.6860 C   0  0  0  0  0  3  0  0  0  0  0  0
   50.7190   42.0400  128.8620 C   0  0  0  0  0  3  0  0  0  0  0  0
   50.4280   39.8850  128.6060 C   0  0  0  0  0  3  0  0  0  0  0  0
   52.1250   29.5290  132.3260 C   0  0  0  0  0  0  0  0  0  0  0  0
   52.8560   33.1840  129.1020 C   0  0  0  0  0  0  0  0  0  0  0  0
   44.5640   25.2320  126.0960 C   0  0  0  0  0  3  0  0  0  0  0  0
   52.6890   34.4020  130.0290 C   0  0  0  0  0  0  0  0  0  0  0  0
   44.7820   25.2800  127.5080 C   0  0  0  0  0  3  0  0  0  0  0  0
   43.6470   25.3100  128.3630 C   0  0  0  0  0  3  0  0  0  0  0  0
   42.3540   25.2960  127.7880 C   0  0  0  0  0  3  0  0  0  0  0  0
   46.0750   25.2970  128.1010 C   0  0  0  0  0  3  0  0  0  0  0  0
   46.2380   25.3680  129.4690 C   0  0  0  0  0  3  0  0  0  0  0  0
   45.1100   25.3690  130.2910 C   0  0  0  0  0  3  0  0  0  0  0  0
   43.1230   25.1850  124.5020 H   0  0  0  0  0  0  0  0  0  0  0  0
   40.3260   22.9040  127.3080 H   0  0  0  0  0  0  0  0  0  0  0  0
   49.8090   25.0390  131.1370 H   0  0  0  0  0  0  0  0  0  0  0  0
   51.9020   25.8680  130.6180 H   0  0  0  0  0  0  0  0  0  0  0  0
   51.2810   26.4140  129.1010 H   0  0  0  0  0  0  0  0  0  0  0  0
   50.7550   28.5170  129.8850 H   0  0  0  0  0  0  0  0  0  0  0  0
   50.2290   27.9760  131.4190 H   0  0  0  0  0  0  0  0  0  0  0  0
   52.8770   27.5540  131.8300 H   0  0  0  0  0  0  0  0  0  0  0  0
   53.0490   28.6880  130.5540 H   0  0  0  0  0  0  0  0  0  0  0  0
   51.0700   31.3420  132.1010 H   0  0  0  0  0  0  0  0  0  0  0  0
   51.9630   31.3050  128.9670 H   0  0  0  0  0  0  0  0  0  0  0  0
   41.4990   25.3200  128.4620 H   0  0  0  0  0  0  0  0  0  0  0  0
   54.3120   31.1040  131.8920 H   0  0  0  0  0  0  0  0  0  0  0  0
   50.6680   33.9230  130.6010 H   0  0  0  0  0  0  0  0  0  0  0  0
   50.7700   34.9570  129.2300 H   0  0  0  0  0  0  0  0  0  0  0  0
   51.5960   35.9100  132.0020 H   0  0  0  0  0  0  0  0  0  0  0  0
   48.9690   35.2160  131.6090 H   0  0  0  0  0  0  0  0  0  0  0  0
   48.4250   37.0850  132.8650 H   0  0  0  0  0  0  0  0  0  0  0  0
   48.8550   36.3160  129.4800 H   0  0  0  0  0  0  0  0  0  0  0  0
   47.7370   38.4750  130.2820 H   0  0  0  0  0  0  0  0  0  0  0  0
   50.1270   38.7350  130.9390 H   0  0  0  0  0  0  0  0  0  0  0  0
   50.0350   36.8590  127.5580 H   0  0  0  0  0  0  0  0  0  0  0  0
   46.9420   25.2700  127.4420 H   0  0  0  0  0  0  0  0  0  0  0  0
   50.8420   42.4630  125.0170 H   0  0  0  0  0  0  0  0  0  0  0  0
   50.6160   40.7660  124.6950 H   0  0  0  0  0  0  0  0  0  0  0  0
   50.8270   42.9190  129.4960 H   0  0  0  0  0  0  0  0  0  0  0  0
   53.0150   29.6760  132.9360 H   0  0  0  0  0  0  0  0  0  0  0  0
   51.3600   29.2420  133.0450 H   0  0  0  0  0  0  0  0  0  0  0  0
   53.9130   33.0320  128.8890 H   0  0  0  0  0  0  0  0  0  0  0  0
   52.4230   33.4000  128.1260 H   0  0  0  0  0  0  0  0  0  0  0  0
   53.1450   34.2000  130.9970 H   0  0  0  0  0  0  0  0  0  0  0  0
   53.2320   35.2700  129.6620 H   0  0  0  0  0  0  0  0  0  0  0  0
   45.2230   25.4050  131.3740 H   0  0  0  0  0  0  0  0  0  0  0  0
   42.9850   25.3800  130.4240 H   0  0  0  0  0  0  0  0  0  0  0  0
   45.4160   25.1730  124.3590 H   0  0  0  0  0  0  0  0  0  0  0  0
   47.6020   24.6190  130.7740 H   0  0  0  0  0  0  0  0  0  0  0  0
   39.4650   23.0000  125.7560 H   0  0  0  0  0  0  0  0  0  0  0  0
   38.6140   23.4080  127.2700 H   0  0  0  0  0  0  0  0  0  0  0  0
   47.5340   25.3290  130.0520 N   0  0  0  0  0  0  0  0  0  0  0  0
   50.5470   40.8820  129.4810 N   0  0  0  0  0  2  0  0  0  0  0  0
   49.7970   25.7280  130.3910 N   0  0  0  0  0  0  0  0  0  0  0  0
   51.7810   30.7770  131.6470 N   0  0  0  0  0  0  0  0  0  0  0  0
   52.2640   31.9720  129.6700 N   0  0  0  0  0  0  0  0  0  0  0  0
   53.9350   31.5080  131.0400 N   0  0  0  0  0  2  0  0  0  0  0  0
   50.2460   38.5560  128.8830 N   0  0  0  0  0  0  0  0  0  0  0  0
   50.3000   38.7360  126.6470 N   0  0  0  0  0  2  0  0  0  0  0  0
   50.7080   41.5200  125.3680 N   0  0  0  0  0  0  0  0  0  0  0  0
   50.7730   42.2820  127.5570 N   0  0  0  0  0  2  0  0  0  0  0  0
   45.6940   25.2070  125.3120 O   0  0  0  0  0  0  0  0  0  0  0  0
   39.8630   24.8630  126.6750 O   0  0  0  0  0  0  0  0  0  0  0  0
   40.5740   25.5150  124.6630 O   0  0  0  0  0  1  0  0  0  0  0  0
   48.6600   26.8860  128.8040 O   0  0  0  0  0  1  0  0  0  0  0  0
   49.3910   36.8820  132.7560 O   0  0  0  0  0  0  0  0  0  0  0  0
   47.6900   37.5510  130.6420 O   0  0  0  0  0  0  0  0  0  0  0  0
   51.3070   37.1820  130.4360 O   0  0  0  0  0  0  0  0  0  0  0  0
  1  3  1  0
  1 12  1  0
  1 27  1  0
  2 26  1  0
  2 30  1  0
  2 64  1  0
  3 80  1  0
  3 81  1  0
  4 32  1  0
  4 67  1  0
  4 68  1  0
  4 80  1  0
  5 69  1  0
  5 71  1  0
  5 82  1  0
  6  7  1  0
  6 34  1  0
  6 35  1  0
  6 71  1  0
  7  8  1  0
  7 36  1  0
  7 37  1  0
  8 21  1  0
  8 38  1  0
  8 39  1  0
  9 72  1  0
  9 73  1  0
  9 74  1  0
 10 11  1  0
 10 24  1  0
 10 44  1  0
 10 45  1  0
 11 13  1  0
 11 46  1  0
 11 85  1  0
 12 23  1  0
 12 31  1  0
 13 14  1  0
 13 47  1  0
 13 83  1  0
 14 15  1  0
 14 49  1  0
 14 84  1  0
 15 51  1  0
 15 75  1  0
 15 85  1  0
 16 52  1  0
 16 75  1  0
 16 76  1  0
 17 18  1  0
 17 20  1  0
 17 76  1  0
 18 77  1  0
 18 78  1  0
 19 56  1  0
 19 70  1  0
 19 78  1  0
 20 70  1  0
 20 75  1  0
 21 57  1  0
 21 58  1  0
 21 72  1  0
 22 24  1  0
 22 59  1  0
 22 60  1  0
 22 73  1  0
 23 25  1  0
 23 79  1  0
 24 61  1  0
 24 62  1  0
 25 26  1  0
 25 28  1  0
 26 27  1  0
 27 42  1  0
 28 29  1  0
 28 53  1  0
 29 30  1  0
 29 69  1  0
 30 63  1  0
 33 71  1  0
 40 72  1  0
 41 73  1  0
 43 74  1  0
 48 83  1  0
 50 84  1  0
 54 77  1  0
 55 77  1  0
 65 79  1  0
 66 69  1  0
M  END
$$$$
