7pv6_C_LRZ_501
     RDKit          3D

 76 80  0  0  0  0  0  0  0  0999 V2000
   31.8290   24.2360  186.0670 C   0  0  0  0  0  3  0  0  0  0  0  0
   30.5550   25.6010  182.8340 C   0  0  0  0  0  3  0  0  0  0  0  0
   32.7570   23.1810  186.5580 C   0  0  0  0  0  3  0  0  0  0  0  0
   34.1180   23.7640  188.4080 C   0  0  0  0  0  0  0  0  0  0  0  0
   27.0100   28.1780  182.0420 C   0  0  0  0  0  3  0  0  0  0  0  0
   25.3710   29.2310  180.4700 C   0  0  0  0  0  0  0  0  0  0  0  0
   24.4230   30.4640  180.5910 C   0  0  0  0  0  0  0  0  0  0  0  0
   25.0970   31.8170  180.8900 C   0  0  0  0  0  0  0  0  0  0  0  0
   24.8690   34.1120  179.9680 C   0  0  0  0  0  3  0  0  0  0  0  0
   25.9490   35.8790  181.2870 C   0  0  0  0  0  0  0  0  0  0  0  0
   26.6350   36.9970  180.5210 C   0  0  0  0  0  0  0  0  0  0  0  0
   31.1590   25.0500  186.9780 C   0  0  0  0  0  3  0  0  0  0  0  0
   28.1550   36.8680  180.3850 C   0  0  0  0  0  0  0  0  0  0  0  0
   28.6440   37.5370  181.6850 C   0  0  0  0  0  0  0  0  0  0  0  0
   27.6440   38.7050  181.7700 C   0  0  0  0  0  0  0  0  0  0  0  0
   27.2310   38.5870  184.2620 C   0  0  0  0  0  3  0  0  0  0  0  0
   26.9210   40.6220  184.7490 C   0  0  0  0  0  3  0  0  0  0  0  0
   26.6790   41.8840  185.3150 C   0  0  0  0  0  3  0  0  0  0  0  0
   26.9280   42.7520  183.1870 C   0  0  0  0  0  3  0  0  0  0  0  0
   27.1530   40.5820  183.3880 C   0  0  0  0  0  3  0  0  0  0  0  0
   30.3060   26.0280  186.5370 C   0  0  0  0  0  3  0  0  0  0  0  0
   30.0840   26.2410  185.1430 C   0  0  0  0  0  3  0  0  0  0  0  0
   30.7690   25.4040  184.2200 C   0  0  0  0  0  3  0  0  0  0  0  0
   31.6390   24.4060  184.7170 C   0  0  0  0  0  3  0  0  0  0  0  0
   29.2040   27.2330  184.6340 C   0  0  0  0  0  3  0  0  0  0  0  0
   29.0260   27.3970  183.2780 C   0  0  0  0  0  3  0  0  0  0  0  0
   29.7050   26.5680  182.3870 C   0  0  0  0  0  3  0  0  0  0  0  0
   31.3300   24.8970  188.0420 H   0  0  0  0  0  0  0  0  0  0  0  0
   33.7850   22.8520  188.9010 H   0  0  0  0  0  0  0  0  0  0  0  0
   27.0420   30.1430  181.3450 H   0  0  0  0  0  0  0  0  0  0  0  0
   24.7930   28.3250  180.6470 H   0  0  0  0  0  0  0  0  0  0  0  0
   25.6900   29.1390  179.4330 H   0  0  0  0  0  0  0  0  0  0  0  0
   23.8090   30.5580  179.6970 H   0  0  0  0  0  0  0  0  0  0  0  0
   23.7010   30.2290  181.3710 H   0  0  0  0  0  0  0  0  0  0  0  0
   26.0600   31.8490  180.3830 H   0  0  0  0  0  0  0  0  0  0  0  0
   25.3590   31.8660  181.9460 H   0  0  0  0  0  0  0  0  0  0  0  0
   23.3210   32.9980  180.7310 H   0  0  0  0  0  0  0  0  0  0  0  0
   26.8360   34.4080  180.0920 H   0  0  0  0  0  0  0  0  0  0  0  0
   32.1600   23.7730  184.0000 H   0  0  0  0  0  0  0  0  0  0  0  0
   23.6770   34.4790  178.4190 H   0  0  0  0  0  0  0  0  0  0  0  0
   24.9240   36.1840  181.4880 H   0  0  0  0  0  0  0  0  0  0  0  0
   26.3960   35.7650  182.2730 H   0  0  0  0  0  0  0  0  0  0  0  0
   26.1700   37.1420  179.5470 H   0  0  0  0  0  0  0  0  0  0  0  0
   28.4340   35.8220  180.3950 H   0  0  0  0  0  0  0  0  0  0  0  0
   28.1640   37.1890  178.4600 H   0  0  0  0  0  0  0  0  0  0  0  0
   28.5220   36.8560  182.5260 H   0  0  0  0  0  0  0  0  0  0  0  0
   30.0680   38.4870  180.7930 H   0  0  0  0  0  0  0  0  0  0  0  0
   27.9270   39.5340  181.1270 H   0  0  0  0  0  0  0  0  0  0  0  0
   27.3550   37.5110  184.3450 H   0  0  0  0  0  0  0  0  0  0  0  0
   28.6840   27.8760  185.3430 H   0  0  0  0  0  0  0  0  0  0  0  0
   26.2630   43.0180  186.9880 H   0  0  0  0  0  0  0  0  0  0  0  0
   26.4180   41.3050  187.2670 H   0  0  0  0  0  0  0  0  0  0  0  0
   26.9260   43.6540  182.5770 H   0  0  0  0  0  0  0  0  0  0  0  0
   29.5610   26.6970  181.3150 H   0  0  0  0  0  0  0  0  0  0  0  0
   31.0780   24.9610  182.1260 H   0  0  0  0  0  0  0  0  0  0  0  0
   30.2030   27.6460  187.5640 H   0  0  0  0  0  0  0  0  0  0  0  0
   28.4470   29.3390  183.0090 H   0  0  0  0  0  0  0  0  0  0  0  0
   33.6000   24.6180  188.8420 H   0  0  0  0  0  0  0  0  0  0  0  0
   35.1960   23.8780  188.5150 H   0  0  0  0  0  0  0  0  0  0  0  0
   28.1550   28.3950  182.7770 N   0  0  0  0  0  0  0  0  0  0  0  0
   27.1690   41.6150  182.5490 N   0  0  0  0  0  2  0  0  0  0  0  0
   26.5550   29.2530  181.3330 N   0  0  0  0  0  0  0  0  0  0  0  0
   24.3180   32.9990  180.5410 N   0  0  0  0  0  0  0  0  0  0  0  0
   25.9540   34.6280  180.5430 N   0  0  0  0  0  0  0  0  0  0  0  0
   24.4990   34.8010  178.9190 N   0  0  0  0  0  2  0  0  0  0  0  0
   27.3740   39.2640  183.0850 N   0  0  0  0  0  0  0  0  0  0  0  0
   26.9800   39.3500  185.2920 N   0  0  0  0  0  2  0  0  0  0  0  0
   26.4360   42.0880  186.6210 N   0  0  0  0  0  0  0  0  0  0  0  0
   26.6890   42.9420  184.4800 N   0  0  0  0  0  2  0  0  0  0  0  0
   29.6400   26.8470  187.3900 O   0  0  0  0  0  0  0  0  0  0  0  0
   33.9220   23.6850  186.9720 O   0  0  0  0  0  0  0  0  0  0  0  0
   32.5030   22.0030  186.5630 O   0  0  0  0  0  1  0  0  0  0  0  0
   26.4380   27.0890  182.0300 O   0  0  0  0  0  1  0  0  0  0  0  0
   28.7290   37.4770  179.2240 O   0  0  0  0  0  0  0  0  0  0  0  0
   30.0050   37.9620  181.6330 O   0  0  0  0  0  0  0  0  0  0  0  0
   26.4260   38.2150  181.2580 O   0  0  0  0  0  0  0  0  0  0  0  0
  1  3  1  0
  1 12  1  0
  1 24  1  0
  2 23  1  0
  2 27  1  0
  2 55  1  0
  3 71  1  0
  3 72  1  0
  4 29  1  0
  4 58  1  0
  4 59  1  0
  4 71  1  0
  5 60  1  0
  5 62  1  0
  5 73  1  0
  6  7  1  0
  6 31  1  0
  6 32  1  0
  6 62  1  0
  7  8  1  0
  7 33  1  0
  7 34  1  0
  8 35  1  0
  8 36  1  0
  8 63  1  0
  9 63  1  0
  9 64  1  0
  9 65  1  0
 10 11  1  0
 10 41  1  0
 10 42  1  0
 10 64  1  0
 11 13  1  0
 11 43  1  0
 11 76  1  0
 12 21  1  0
 12 28  1  0
 13 14  1  0
 13 44  1  0
 13 74  1  0
 14 15  1  0
 14 46  1  0
 14 75  1  0
 15 48  1  0
 15 66  1  0
 15 76  1  0
 16 49  1  0
 16 66  1  0
 16 67  1  0
 17 18  1  0
 17 20  1  0
 17 67  1  0
 18 68  1  0
 18 69  1  0
 19 53  1  0
 19 61  1  0
 19 69  1  0
 20 61  1  0
 20 66  1  0
 21 22  1  0
 21 70  1  0
 22 23  1  0
 22 25  1  0
 23 24  1  0
 24 39  1  0
 25 26  1  0
 25 50  1  0
 26 27  1  0
 26 60  1  0
 27 54  1  0
 30 62  1  0
 37 63  1  0
 38 64  1  0
 40 65  1  0
 45 74  1  0
 47 75  1  0
 51 68  1  0
 52 68  1  0
 56 70  1  0
 57 60  1  0
M  END
$$$$
