7qrd_B_SAH_604
     RDKit          3D

 45 63  0  0  0  0  0  0  0  0999 V2000
   22.7230   15.0150  118.2810 C   0  0  0  0  0  0  0  0  0  0  0  0
   24.3260   23.1000  116.9590 C   0  0  0  0  0  0  0  0  0  0  0  0
   22.0760   25.7830  114.1750 C   0  0  0  0  0  3  0  0  0  0  0  0
   25.7430   22.9020  117.4930 C   0  0  0  0  0  0  0  0  0  0  0  0
   25.7400   21.4530  117.9700 C   0  0  0  0  0  0  0  0  0  0  0  0
   23.1270   25.1700  116.2060 C   0  0  0  0  0  3  0  0  0  0  0  0
   24.2730   21.0380  118.0570 C   0  0  0  0  0  5  0  0  0  0  0  0
   22.8020   26.3980  116.7610 C   0  0  0  0  0  3  0  0  0  0  0  0
   23.8420   20.6490  119.4650 C   0  0  0  0  0  5  0  0  0  0  0  0
   22.1040   27.3290  116.0010 C   0  0  0  0  0  3  0  0  0  0  0  0
   23.8890   25.2400  118.2800 C   0  0  0  0  0  3  0  0  0  0  0  0
   22.8060   16.2650  117.4080 C   0  0  0  0  0  6  0  0  0  0  0  0
   23.7880   17.2690  118.0090 C   0  0  0  0  0  6  0  0  0  0  0  0
   23.2450   18.0730  119.1890 C   0  0  0  0  0  0  0  0  0  0  0  0
   24.3450   22.9580  115.8780 H   0  0  0  0  0  0  0  0  0  0  0  0
   21.7880   25.5380  113.1530 H   0  0  0  0  0  0  0  0  0  0  0  0
   25.9990   23.6110  118.2790 H   0  0  0  0  0  0  0  0  0  0  0  0
   26.2400   21.3440  118.9320 H   0  0  0  0  0  0  0  0  0  0  0  0
   24.1160   20.1570  117.4360 H   0  0  0  0  0  0  0  0  0  0  0  0
   24.1590   21.4280  120.1580 H   0  0  0  0  0  0  0  0  0  0  0  0
   22.7540   20.5940  119.4980 H   0  0  0  0  0  2  0  0  0  0  0  0
   24.3700   24.9600  119.2180 H   0  0  0  0  0  0  0  0  0  0  0  0
   23.1540   16.0010  116.5300 H   0  0  0  0  0  0  0  0  0  0  0  0
   24.0910   17.9620  117.2240 H   0  0  0  0  0  2  0  0  0  0  0  0
   24.6740   16.7250  118.3360 H   0  0  0  0  0  0  0  0  0  0  0  0
   22.8020   17.3880  119.9120 Hg  0  0  0  0  0  8  0  0  0  0  0  0
   22.4580   18.7390  118.8330 Hg  0  0  0  0  0 11  0  0  0  0  0  0
   21.5060   17.7140  117.0780 H   0  0  0  0  0  2  0  0  0  0  0  0
   20.8880   16.3330  116.9380 H   0  0  0  0  0  0  0  0  0  0  0  0
   22.0400   28.7520  117.4580 H   0  0  0  0  0  0  0  0  0  0  0  0
   21.2680   29.1870  115.9400 H   0  0  0  0  0  0  0  0  0  0  0  0
   26.2820   23.4520  115.6930 H   0  0  0  0  0  0  0  0  0  0  0  0
   26.7250   21.1860  116.2950 H   0  0  0  0  0  0  0  0  0  0  0  0
   21.4860   16.8690  117.2420 N   0  0  0  0  0  5  0  0  0  0  0  0
   21.7460   27.0090  114.7090 N   0  0  0  0  0  2  0  0  0  0  0  0
   22.7720   24.8670  114.9350 N   0  0  0  0  0  2  0  0  0  0  0  0
   21.7780   28.5170  116.5060 N   0  0  0  0  0  0  0  0  0  0  0  0
   23.2780   26.4200  118.0270 N   0  0  0  0  0  2  0  0  0  0  0  0
   23.8030   24.4570  117.1610 N   0  0  0  0  0  0  0  0  0  0  0  0
   21.7530   14.8220  119.0140 O   0  0  0  0  0  0  0  0  0  0  0  0
   26.7130   23.1220  116.5090 O   0  0  0  0  0  0  0  0  0  0  0  0
   26.4270   20.6420  117.0530 O   0  0  0  0  0  0  0  0  0  0  0  0
   23.5090   22.1490  117.6220 O   0  0  0  0  0  0  0  0  0  0  0  0
   23.6180   14.1660  118.2750 O   0  0  0  0  0  1  0  0  0  0  0  0
   24.5250   19.0620  120.0180 S   0  0  0  0  0  4  0  0  0  0  0  0
  1 12  1  0
  1 26  1  0
  1 40  1  0
  1 44  1  0
  2  4  1  0
  2 15  1  0
  2 39  1  0
  2 43  1  0
  3 16  1  0
  3 35  1  0
  3 36  1  0
  4  5  1  0
  4 17  1  0
  4 41  1  0
  5  7  1  0
  5 18  1  0
  5 42  1  0
  6  8  1  0
  6 36  1  0
  6 39  1  0
  7  9  1  0
  7 19  1  0
  7 27  1  0
  7 43  1  0
  8 10  1  0
  8 38  1  0
  9 20  1  0
  9 21  1  0
  9 27  1  0
  9 45  1  0
 10 35  1  0
 10 37  1  0
 11 22  1  0
 11 38  1  0
 11 39  1  0
 12 13  1  0
 12 23  1  0
 12 26  1  0
 12 27  1  0
 12 34  1  0
 13 14  1  0
 13 24  1  0
 13 25  1  0
 13 26  1  0
 13 27  1  0
 14 26  1  0
 14 27  1  0
 14 45  1  0
 21 27  1  0
 24 27  1  0
 26 27  1  0
 26 34  1  0
 26 40  1  0
 26 45  1  0
 27 28  1  0
 27 34  1  0
 27 45  1  0
 28 34  1  0
 29 34  1  0
 30 37  1  0
 31 37  1  0
 32 41  1  0
 33 42  1  0
M  END
$$$$
