8sih_A_I1K_501
     RDKit          3D

 44 48  0  0  0  0  0  0  0  0999 V2000
    6.4610   19.7040  -28.1060 C   0  0  0  0  0  3  0  0  0  0  0  0
    6.7370   20.6330  -30.2090 C   0  0  0  0  0  2  0  0  0  0  0  0
    2.5470   30.1900  -31.5710 C   0  0  0  0  0  3  0  0  0  0  0  0
    3.4060   31.9330  -33.0870 C   0  0  0  0  0  2  0  0  0  0  0  0
    3.3940   33.2190  -32.2960 C   0  0  0  0  0  3  0  0  0  0  0  0
    2.8070   34.3680  -32.8270 C   0  0  0  0  0  2  0  0  0  0  0  0
    2.9060   35.5870  -32.1670 C   0  0  0  0  0  2  0  0  0  0  0  0
    3.5470   35.6660  -30.9470 C   0  0  0  0  0  2  0  0  0  0  0  0
    4.1050   34.5210  -30.3880 C   0  0  0  0  0  2  0  0  0  0  0  0
    4.0340   33.3090  -31.0590 C   0  0  0  0  0  2  0  0  0  0  0  0
    1.1700   27.9560  -26.8860 C   0  0  0  0  0  2  0  0  0  0  0  0
    1.5660   27.8930  -25.4200 C   0  0  0  0  0  2  0  0  0  0  0  0
    4.9620   21.2850  -29.0740 C   0  0  0  0  0  3  0  0  0  0  0  0
    1.2550   29.1370  -24.6190 C   0  0  0  0  0  2  0  0  0  0  0  0
   -0.7080   30.5730  -24.6410 C   0  0  0  0  0  3  0  0  0  0  0  0
   -2.8000   32.0120  -24.6420 C   0  0  0  0  0  3  0  0  0  0  0  0
   -2.3140   32.8840  -25.8990 C   0  0  0  0  0  2  0  0  0  0  0  0
   -1.8910   34.2670  -25.3150 C   0  0  0  0  0  2  0  0  0  0  0  0
   -2.6580   34.3740  -24.1580 C   0  0  0  0  0  2  0  0  0  0  0  0
   -2.6730   32.9750  -23.4880 C   0  0  0  0  0  2  0  0  0  0  0  0
    1.3150   24.4080  -29.9150 C   0  0  0  0  0  3  0  0  0  0  0  0
    1.6430   22.9740  -29.4730 C   0  0  0  0  0  3  0  0  0  0  0  0
    5.2960   20.4870  -27.9890 C   0  0  0  0  0  3  0  0  0  0  0  0
    3.5680   21.5780  -27.4110 C   0  0  0  0  0  2  0  0  0  0  0  0
    3.1670   23.0450  -29.4430 C   0  0  0  0  0  3  0  0  0  0  0  0
    2.4110   25.2290  -29.2270 C   0  0  0  0  0  3  0  0  0  0  0  0
    1.7610   25.8560  -28.0130 C   0  0  0  0  0  2  0  0  0  0  0  0
    2.8090   28.0420  -28.7520 C   0  0  0  0  0  2  0  0  0  0  0  0
    1.9890   28.3710  -29.9880 C   0  0  0  0  0  2  0  0  0  0  0  0
    6.8590   18.8200  -27.1810 N   0  0  0  0  0  1  0  0  0  0  0  0
    7.1830   19.8180  -29.2490 N   0  0  0  0  0  2  0  0  0  0  0  0
    0.0640   31.4940  -25.1190 N   0  0  0  0  0  1  0  0  0  0  0  0
    5.6400   21.4010  -30.2160 N   0  0  0  0  0  2  0  0  0  0  0  0
    4.4030   20.6790  -26.9450 N   0  0  0  0  0  2  0  0  0  0  0  0
    3.8410   21.9870  -28.6920 N   0  0  0  0  0  0  0  0  0  0  0  0
    2.1390   27.2400  -27.7190 N   0  0  0  0  0  0  0  0  0  0  0  0
    2.8720   29.0630  -30.9160 N   0  0  0  0  0  2  0  0  0  0  0  0
    3.5610   30.7200  -32.2920 N   0  0  0  0  0  2  0  0  0  0  0  0
   -0.1750   29.3780  -24.4230 N   0  0  0  0  0  2  0  0  0  0  0  0
   -2.0490   30.7660  -24.4140 N   0  0  0  0  0  2  0  0  0  0  0  0
    3.4520   24.2910  -28.8340 O   0  0  0  0  0  0  0  0  0  0  0  0
    1.3980   30.6670  -31.5560 O   0  0  0  0  0  1  0  0  0  0  0  0
    1.4120   24.6650  -31.3110 O   0  0  0  0  0  1  0  0  0  0  0  0
    1.1700   22.0050  -30.3930 O   0  0  0  0  0  1  0  0  0  0  0  0
  1 23  1  0
  1 30  1  0
  1 31  1  0
  2 31  1  0
  2 33  1  0
  3 37  1  0
  3 38  1  0
  3 42  1  0
  4  5  1  0
  4 38  1  0
  5  6  1  0
  5 10  1  0
  6  7  1  0
  7  8  1  0
  8  9  1  0
  9 10  1  0
 11 12  1  0
 11 36  1  0
 12 14  1  0
 13 23  1  0
 13 33  1  0
 13 35  1  0
 14 39  1  0
 15 32  1  0
 15 39  1  0
 15 40  1  0
 16 17  1  0
 16 20  1  0
 16 40  1  0
 17 18  1  0
 18 19  1  0
 19 20  1  0
 21 22  1  0
 21 26  1  0
 21 43  1  0
 22 25  1  0
 22 44  1  0
 23 34  1  0
 24 34  1  0
 24 35  1  0
 25 35  1  0
 25 41  1  0
 26 27  1  0
 26 41  1  0
 27 36  1  0
 28 29  1  0
 28 36  1  0
 29 37  1  0
M  END
$$$$
