2prl_A_DDQ_700
     RDKit          3D

 14 13  0  0  0  0  0  0  0  0999 V2000
   61.2130   53.2180   -2.1110 C   0  0  0  0  0  2  0  0  0  0  0  0
   57.2290   45.5620   -3.5860 C   0  0  0  0  0  1  0  0  0  0  0  0
   60.2260   52.1270   -1.8420 C   0  0  0  0  0  2  0  0  0  0  0  0
   60.4380   50.9940   -2.8120 C   0  0  0  0  0  2  0  0  0  0  0  0
   59.1620   50.6600   -3.5560 C   0  0  0  0  0  2  0  0  0  0  0  0
   59.3330   49.3280   -4.2290 C   0  0  0  0  0  2  0  0  0  0  0  0
   58.6200   49.2690   -5.5450 C   0  0  0  0  0  2  0  0  0  0  0  0
   57.6080   48.1540   -5.4870 C   0  0  0  0  0  2  0  0  0  0  0  0
   58.2200   46.7800   -5.5010 C   0  0  0  0  0  2  0  0  0  0  0  0
   57.1940   45.7500   -5.0700 C   0  0  0  0  0  2  0  0  0  0  0  0
   63.0520   54.3710   -0.9940 C   0  0  0  0  0  1  0  0  0  0  0  0
   62.0640   52.4050   -0.1020 C   0  0  0  0  0  1  0  0  0  0  0  0
   61.8070   53.6240   -0.8510 N   0  0  0  0  0  4  0  0  0  0  0  0
   61.0410   54.4000   -0.2970 O   0  0  0  0  0  1  0  0  0  0  0  0
  1  3  1  0
  1 13  1  0
  2 10  1  0
  3  4  1  0
  4  5  1  0
  5  6  1  0
  6  7  1  0
  7  8  1  0
  8  9  1  0
  9 10  1  0
 11 13  1  0
 12 13  1  0
 13 14  1  0
M  END
$$$$
