4b95_L_UCK_1206
     RDKit          3D

 26 28  0  0  0  0  0  0  0  0999 V2000
   -8.9090   78.9990    1.5390 C   0  0  0  0  0  3  0  0  0  0  0  0
   -8.2200   79.6640    2.7030 C   0  0  0  0  0  2  0  0  0  0  0  0
   -7.7660   80.9600    2.1070 C   0  0  0  0  0  3  0  0  0  0  0  0
   -6.4840   81.5130    2.8470 C   0  0  0  0  0  3  0  0  0  0  0  0
   -5.5240   82.4680    5.0470 C   0  0  0  0  0  2  0  0  0  0  0  0
   -5.2640   81.4970    6.1640 C   0  0  0  0  0  3  0  0  0  0  0  0
   -4.0920   81.5750    6.9850 C   0  0  0  0  0  2  0  0  0  0  0  0
   -3.8830   80.6300    7.9710 C   0  0  0  0  0  2  0  0  0  0  0  0
   -4.8190   79.5900    8.1510 C   0  0  0  0  0  3  0  0  0  0  0  0
   -5.9640   79.5100    7.3200 C   0  0  0  0  0  2  0  0  0  0  0  0
   -6.1860   80.4690    6.3690 C   0  0  0  0  0  2  0  0  0  0  0  0
   -7.2830   81.7630   -0.3520 C   0  0  0  0  0  3  0  0  0  0  0  0
   -7.2130   81.4120   -1.8240 C   0  0  0  0  0  3  0  0  0  0  0  0
   -6.0460   80.7540   -2.3230 C   0  0  0  0  0  3  0  0  0  0  0  0
   -5.9450   80.4540   -3.6310 C   0  0  0  0  0  2  0  0  0  0  0  0
   -7.0290   80.7410   -4.4850 C   0  0  0  0  0  2  0  0  0  0  0  0
   -8.1890   81.3300   -3.9850 C   0  0  0  0  0  2  0  0  0  0  0  0
   -8.2770   81.6920   -2.6530 C   0  0  0  0  0  2  0  0  0  0  0  0
   -8.0770   79.3680    0.3860 C   0  0  0  0  0  2  0  0  0  0  0  0
   -4.5990   78.3260    9.3470 Cl  0  0  0  0  0  0  0  0  0  0  0  0
   -4.7390   80.3920   -1.2810 Cl  0  0  0  0  0  0  0  0  0  0  0  0
   -6.6350   82.0370    4.2280 N   0  0  0  0  0  2  0  0  0  0  0  0
   -7.6800   80.7210    0.6610 N   0  0  0  0  0  0  0  0  0  0  0  0
  -10.1700   79.5100    1.3120 O   0  0  0  0  0  1  0  0  0  0  0  0
   -5.3870   81.5170    2.2920 O   0  0  0  0  0  1  0  0  0  0  0  0
   -6.9580   82.9000    0.0190 O   0  0  0  0  0  1  0  0  0  0  0  0
  1  2  1  0
  1 19  1  0
  1 24  1  0
  2  3  1  0
  3  4  1  0
  3 23  1  0
  4 22  1  0
  4 25  1  0
  5  6  1  0
  5 22  1  0
  6  7  1  0
  6 11  1  0
  7  8  1  0
  8  9  1  0
  9 10  1  0
  9 20  1  0
 10 11  1  0
 12 13  1  0
 12 23  1  0
 12 26  1  0
 13 14  1  0
 13 18  1  0
 14 15  1  0
 14 21  1  0
 15 16  1  0
 16 17  1  0
 17 18  1  0
 19 23  1  0
M  END
$$$$
