4b9k_C_TG0_1203
     RDKit          3D

 32 35  0  0  0  0  0  0  0  0999 V2000
   -5.5000   33.6220   -3.7890 C   0  0  0  0  0  3  0  0  0  0  0  0
   -5.6260   33.9800   -2.4210 C   0  0  0  0  0  3  0  0  0  0  0  0
   -4.5440   33.6590   -1.4250 C   0  0  0  0  0  1  0  0  0  0  0  0
   -6.7910   34.6970   -2.0380 C   0  0  0  0  0  3  0  0  0  0  0  0
   -7.0110   35.1230   -0.6030 C   0  0  0  0  0  3  0  0  0  0  0  0
   -7.6940   34.3620    1.7650 C   0  0  0  0  0  3  0  0  0  0  0  0
   -6.4610   34.9100    2.4740 C   0  0  0  0  0  3  0  0  0  0  0  0
   -5.4720   36.3080    4.2460 C   0  0  0  0  0  2  0  0  0  0  0  0
   -5.2330   35.3920    5.4450 C   0  0  0  0  0  3  0  0  0  0  0  0
   -3.9810   35.4370    6.0880 C   0  0  0  0  0  2  0  0  0  0  0  0
   -3.7690   34.6180    7.2060 C   0  0  0  0  0  2  0  0  0  0  0  0
   -4.7810   33.7510    7.6650 C   0  0  0  0  0  3  0  0  0  0  0  0
   -4.5740   32.9240    8.9120 C   0  0  0  0  0  3  0  0  0  0  0  0
   -4.0370   33.4180   10.1520 C   0  0  0  0  0  3  0  0  0  0  0  0
   -3.5100   34.7910   10.4490 C   0  0  0  0  0  1  0  0  0  0  0  0
   -4.5930   31.1660   10.6520 C   0  0  0  0  0  2  0  0  0  0  0  0
   -6.0100   33.6790    6.9990 C   0  0  0  0  0  2  0  0  0  0  0  0
   -6.2510   34.5390    5.9260 C   0  0  0  0  0  2  0  0  0  0  0  0
   -8.0280   33.0510    2.3940 C   0  0  0  0  0  2  0  0  0  0  0  0
   -8.5680   32.3010    1.2460 C   0  0  0  0  0  3  0  0  0  0  0  0
   -7.7380   32.7050    0.0560 C   0  0  0  0  0  2  0  0  0  0  0  0
   -7.8170   34.9770   -2.9490 C   0  0  0  0  0  2  0  0  0  0  0  0
   -7.6590   34.6270   -4.2920 C   0  0  0  0  0  2  0  0  0  0  0  0
   -6.5250   33.9110   -4.6870 C   0  0  0  0  0  2  0  0  0  0  0  0
   -4.3610   32.9010   -4.3070 N   0  0  0  0  0  1  0  0  0  0  0  0
   -7.4550   34.1190    0.3460 N   0  0  0  0  0  0  0  0  0  0  0  0
   -6.6590   35.8470    3.5490 N   0  0  0  0  0  2  0  0  0  0  0  0
   -4.0420   32.3350   11.1460 N   0  0  0  0  0  2  0  0  0  0  0  0
   -5.3170   34.5450    2.1710 O   0  0  0  0  0  1  0  0  0  0  0  0
   -9.9100   32.6300    1.0310 O   0  0  0  0  0  1  0  0  0  0  0  0
   -6.8350   36.2950   -0.2600 O   0  0  0  0  0  1  0  0  0  0  0  0
   -5.0320   31.3830    9.1020 S   0  0  0  0  0  0  0  0  0  0  0  0
  1  2  1  0
  1 24  1  0
  1 25  1  0
  2  3  1  0
  2  4  1  0
  4  5  1  0
  4 22  1  0
  5 26  1  0
  5 31  1  0
  6  7  1  0
  6 19  1  0
  6 26  1  0
  7 27  1  0
  7 29  1  0
  8  9  1  0
  8 27  1  0
  9 10  1  0
  9 18  1  0
 10 11  1  0
 11 12  1  0
 12 13  1  0
 12 17  1  0
 13 14  1  0
 13 32  1  0
 14 15  1  0
 14 28  1  0
 16 28  1  0
 16 32  1  0
 17 18  1  0
 19 20  1  0
 20 21  1  0
 20 30  1  0
 21 26  1  0
 22 23  1  0
 23 24  1  0
M  END
$$$$
