5b8d_A_6T4_1306
     RDKit          3D

 10 10  0  0  0  0  0  0  0  0999 V2000
   -2.5090    0.1310   14.4170 C   0  0  0  0  0  1  0  0  0  0  0  0
   -1.3880    1.0950   14.1170 C   0  0  0  0  0  3  0  0  0  0  0  0
    1.0280    1.3590   14.2420 C   0  0  0  0  0  3  0  0  0  0  0  0
    3.2280    1.7250   14.2250 C   0  0  0  0  0  3  0  0  0  0  0  0
    2.7980    2.9370   13.7720 C   0  0  0  0  0  2  0  0  0  0  0  0
    4.6660    1.2940   14.3940 C   0  0  0  0  0  1  0  0  0  0  0  0
   -0.1380    0.6410   14.4560 N   0  0  0  0  0  2  0  0  0  0  0  0
    2.2010    0.8270   14.5070 N   0  0  0  0  0  2  0  0  0  0  0  0
   -1.5800    2.1950   13.6070 O   0  0  0  0  0  1  0  0  0  0  0  0
    1.0670    2.9850   13.6330 S   0  0  0  0  0  0  0  0  0  0  0  0
  1  2  1  0
  2  7  1  0
  2  9  1  0
  3  7  1  0
  3  8  1  0
  3 10  1  0
  4  5  1  0
  4  6  1  0
  4  8  1  0
  5 10  1  0
M  END
$$$$
