5v61_I_FRZ_801
     RDKit          3D

 25 29  0  0  0  0  0  0  0  0999 V2000
  -12.9370   16.2970  -17.8960 C   0  0  0  0  0  2  0  0  0  0  0  0
  -12.4950   18.7800  -13.2730 C   0  0  0  0  0  3  0  0  0  0  0  0
  -10.4880   16.3440  -12.4550 C   0  0  0  0  0  3  0  0  0  0  0  0
  -11.0710   16.6860  -11.2190 C   0  0  0  0  0  2  0  0  0  0  0  0
  -10.3260   16.5240  -10.0290 C   0  0  0  0  0  2  0  0  0  0  0  0
   -9.0350   16.0560  -10.0780 C   0  0  0  0  0  2  0  0  0  0  0  0
   -8.4630   15.7570  -11.3200 C   0  0  0  0  0  2  0  0  0  0  0  0
   -9.1650   15.8910  -12.5050 C   0  0  0  0  0  2  0  0  0  0  0  0
  -12.1010   15.6350  -16.9670 C   0  0  0  0  0  2  0  0  0  0  0  0
  -11.5880   19.5540  -12.6190 C   0  0  0  0  0  2  0  0  0  0  0  0
  -12.0660   20.6150  -11.9000 C   0  0  0  0  0  3  0  0  0  0  0  0
  -13.4910   20.8950  -11.8200 C   0  0  0  0  0  3  0  0  0  0  0  0
  -11.5010   21.6960  -11.1150 C   0  0  0  0  0  3  0  0  0  0  0  0
  -12.5180   17.3390  -15.4370 C   0  0  0  0  0  3  0  0  0  0  0  0
  -13.3410   18.0590  -16.2900 C   0  0  0  0  0  2  0  0  0  0  0  0
  -13.5700   17.5100  -17.5650 C   0  0  0  0  0  2  0  0  0  0  0  0
  -11.1810   16.4890  -13.7330 C   0  0  0  0  0  3  0  0  0  0  0  0
  -12.0850   17.6160  -14.0720 C   0  0  0  0  0  3  0  0  0  0  0  0
  -14.3590   20.0850  -12.4500 N   0  0  0  0  0  2  0  0  0  0  0  0
  -13.8010   19.0050  -13.1590 N   0  0  0  0  0  2  0  0  0  0  0  0
  -12.3920   22.5200  -10.6150 N   0  0  0  0  0  2  0  0  0  0  0  0
  -13.5870   21.9950  -11.0920 N   0  0  0  0  0  2  0  0  0  0  0  0
  -11.9320   16.1840  -15.7500 N   0  0  0  0  0  0  0  0  0  0  0  0
  -10.2160   21.8470  -10.8770 N   0  0  0  0  0  1  0  0  0  0  0  0
  -11.1110   15.6330  -14.7810 N   0  0  0  0  0  2  0  0  0  0  0  0
  1  9  1  0
  1 16  1  0
  2 10  1  0
  2 18  1  0
  2 20  1  0
  3  4  1  0
  3  8  1  0
  3 17  1  0
  4  5  1  0
  5  6  1  0
  6  7  1  0
  7  8  1  0
  9 23  1  0
 10 11  1  0
 11 12  1  0
 11 13  1  0
 12 19  1  0
 12 22  1  0
 13 21  1  0
 13 24  1  0
 14 15  1  0
 14 18  1  0
 14 23  1  0
 15 16  1  0
 17 18  1  0
 17 25  1  0
 19 20  1  0
 21 22  1  0
 23 25  1  0
M  END
$$$$
