5wbn_A_9ZV_1304
     RDKit          3D

 27 30  0  0  0  0  0  0  0  0999 V2000
    3.5480    3.5830    7.7980 C   0  0  0  0  0  3  0  0  0  0  0  0
    2.9340    2.2160    7.6530 C   0  0  0  0  0  2  0  0  0  0  0  0
   -1.7680    3.4220    6.4740 C   0  0  0  0  0  3  0  0  0  0  0  0
   -3.5150    2.7140    7.7860 C   0  0  0  0  0  3  0  0  0  0  0  0
   -2.5070    1.9540    8.5560 C   0  0  0  0  0  3  0  0  0  0  0  0
   -2.9240    1.1000    9.7170 C   0  0  0  0  0  2  0  0  0  0  0  0
   -3.0650    1.9620   10.9520 C   0  0  0  0  0  3  0  0  0  0  0  0
   -1.9600    2.5900   11.5160 C   0  0  0  0  0  2  0  0  0  0  0  0
   -2.0990    3.3810   12.6490 C   0  0  0  0  0  2  0  0  0  0  0  0
   -3.3410    3.5600   13.2250 C   0  0  0  0  0  2  0  0  0  0  0  0
   -4.4440    2.9430   12.6840 C   0  0  0  0  0  2  0  0  0  0  0  0
   -4.3130    2.1490   11.5490 C   0  0  0  0  0  2  0  0  0  0  0  0
    1.4290    2.1050    7.9290 C   0  0  0  0  0  2  0  0  0  0  0  0
    0.5450    2.9040    7.0270 C   0  0  0  0  0  3  0  0  0  0  0  0
    0.1480    4.1790    5.1490 C   0  0  0  0  0  3  0  0  0  0  0  0
   -1.2470    4.1330    5.3150 C   0  0  0  0  0  3  0  0  0  0  0  0
   -2.0820    4.7460    4.3740 C   0  0  0  0  0  2  0  0  0  0  0  0
   -1.5280    5.4310    3.3030 C   0  0  0  0  0  2  0  0  0  0  0  0
   -0.1550    5.4950    3.1560 C   0  0  0  0  0  2  0  0  0  0  0  0
    0.6800    4.8610    4.0550 C   0  0  0  0  0  2  0  0  0  0  0  0
    1.0450    3.5630    6.0390 N   0  0  0  0  0  2  0  0  0  0  0  0
   -3.0890    3.4100    6.7170 N   0  0  0  0  0  2  0  0  0  0  0  0
   -1.2400    1.9970    8.2930 N   0  0  0  0  0  2  0  0  0  0  0  0
   -0.8190    2.8120    7.2870 N   0  0  0  0  0  0  0  0  0  0  0  0
    3.0210    4.3270    8.7430 O   0  0  0  0  0  1  0  0  0  0  0  0
    4.4770    3.9790    7.0760 O   0  0  0  0  0  1  0  0  0  0  0  0
   -4.7200    2.6870    8.1100 O   0  0  0  0  0  1  0  0  0  0  0  0
  1  2  1  0
  1 25  1  0
  1 26  1  0
  2 13  1  0
  3 16  1  0
  3 22  1  0
  3 24  1  0
  4  5  1  0
  4 22  1  0
  4 27  1  0
  5  6  1  0
  5 23  1  0
  6  7  1  0
  7  8  1  0
  7 12  1  0
  8  9  1  0
  9 10  1  0
 10 11  1  0
 11 12  1  0
 13 14  1  0
 14 21  1  0
 14 24  1  0
 15 16  1  0
 15 20  1  0
 15 21  1  0
 16 17  1  0
 17 18  1  0
 18 19  1  0
 19 20  1  0
 23 24  1  0
M  END
$$$$
