6ehj_B_COA_503
     RDKit          3D

 48 50  0  0  0  0  0  0  0  0999 V2000
   62.0030   81.7470   55.2450 C   0  0  0  0  0  3  0  0  0  0  0  0
   62.3020   79.4180   51.4800 C   0  0  0  0  0  2  0  0  0  0  0  0
   62.7090   83.0090   55.6860 C   0  0  0  0  0  3  0  0  0  0  0  0
   58.4060   80.7180   46.7100 C   0  0  0  0  0  2  0  0  0  0  0  0
   62.5230   82.9590   57.1790 C   0  0  0  0  0  3  0  0  0  0  0  0
   57.5070   81.0940   47.8800 C   0  0  0  0  0  2  0  0  0  0  0  0
   61.6690   81.1900   52.8600 C   0  0  0  0  0  3  0  0  0  0  0  0
   61.1760   82.2960   57.3550 C   0  0  0  0  0  3  0  0  0  0  0  0
   61.0020   81.8360   51.7270 C   0  0  0  0  0  3  0  0  0  0  0  0
   60.0830   83.3320   57.5300 C   0  0  0  0  0  2  0  0  0  0  0  0
   55.7090   82.7060   47.5340 C   0  0  0  0  0  3  0  0  0  0  0  0
   61.0570   81.1220   50.4390 C   0  0  0  0  0  3  0  0  0  0  0  0
   54.2090   82.8640   47.5420 C   0  0  0  0  0  2  0  0  0  0  0  0
   53.8030   84.0870   48.3540 C   0  0  0  0  0  2  0  0  0  0  0  0
   60.7800   83.0680   53.5000 C   0  0  0  0  0  2  0  0  0  0  0  0
   54.0960   83.3700   50.6510 C   0  0  0  0  0  3  0  0  0  0  0  0
   54.7850   83.6120   51.9580 C   0  0  0  0  0  3  0  0  0  0  0  0
   56.0140   82.7200   52.0930 C   0  0  0  0  0  0  0  0  0  0  0  0
   56.6240   82.9620   53.4580 C   0  0  0  0  0  2  0  0  0  0  0  0
   57.0280   83.0670   51.0190 C   0  0  0  0  0  1  0  0  0  0  0  0
   55.5890   81.2670   51.9820 C   0  0  0  0  0  1  0  0  0  0  0  0
   61.7100   79.9420   50.3990 N   0  0  0  0  0  2  0  0  0  0  0  0
   62.2930   80.0060   52.6810 N   0  0  0  0  0  2  0  0  0  0  0  0
   56.1660   81.4600   47.4720 N   0  0  0  0  0  2  0  0  0  0  0  0
   60.4730   81.6380   49.3370 N   0  0  0  0  0  1  0  0  0  0  0  0
   60.4790   82.9860   52.1840 N   0  0  0  0  0  2  0  0  0  0  0  0
   54.4840   84.1160   49.6290 N   0  0  0  0  0  2  0  0  0  0  0  0
   61.4880   81.9980   53.8940 N   0  0  0  0  0  0  0  0  0  0  0  0
   57.4910   84.6690   58.5590 O   0  0  0  0  0  1  0  0  0  0  0  0
   56.4530   82.4410   58.4260 O   0  0  0  0  0  1  0  0  0  0  0  0
   64.0900   83.0080   55.2960 O   0  0  0  0  0  1  0  0  0  0  0  0
   57.1700   83.5980   56.2920 O   0  0  0  0  0  0  0  0  0  0  0  0
   63.5080   82.0920   57.6930 O   0  0  0  0  0  0  0  0  0  0  0  0
   54.6930   83.1430   56.7220 O   0  0  0  0  0  1  0  0  0  0  0  0
   60.9300   81.5570   56.1600 O   0  0  0  0  0  0  0  0  0  0  0  0
   55.3370   85.2060   55.5540 O   0  0  0  0  0  1  0  0  0  0  0  0
   58.9160   82.6590   57.9570 O   0  0  0  0  0  0  0  0  0  0  0  0
   56.4340   83.6810   47.5590 O   0  0  0  0  0  1  0  0  0  0  0  0
   55.5570   82.9670   54.3940 O   0  0  0  0  0  0  0  0  0  0  0  0
   64.5920   83.2840   59.5930 O   0  0  0  0  0  1  0  0  0  0  0  0
   65.9590   81.7720   58.1700 O   0  0  0  0  0  1  0  0  0  0  0  0
   65.1360   83.9200   57.2840 O   0  0  0  0  0  1  0  0  0  0  0  0
   53.2340   82.5230   50.5680 O   0  0  0  0  0  1  0  0  0  0  0  0
   55.1740   84.9810   52.0740 O   0  0  0  0  0  1  0  0  0  0  0  0
   57.4820   83.3550   57.8350 P   0  0  0  0  0  4  0  0  0  0  0  0
   55.6710   83.7600   55.7720 P   0  0  0  0  0  4  0  0  0  0  0  0
   64.8450   82.7750   58.2020 P   0  0  0  0  0  4  0  0  0  0  0  0
   59.9990   80.1240   47.3360 S   0  0  0  0  0  1  0  0  0  0  0  0
  1  3  1  0
  1 28  1  0
  1 35  1  0
  2 22  1  0
  2 23  1  0
  3  5  1  0
  3 31  1  0
  4  6  1  0
  4 48  1  0
  5  8  1  0
  5 33  1  0
  6 24  1  0
  7  9  1  0
  7 23  1  0
  7 28  1  0
  8 10  1  0
  8 35  1  0
  9 12  1  0
  9 26  1  0
 10 37  1  0
 11 13  1  0
 11 24  1  0
 11 38  1  0
 12 22  1  0
 12 25  1  0
 13 14  1  0
 14 27  1  0
 15 26  1  0
 15 28  1  0
 16 17  1  0
 16 27  1  0
 16 43  1  0
 17 18  1  0
 17 44  1  0
 18 19  1  0
 18 20  1  0
 18 21  1  0
 19 39  1  0
 29 45  1  0
 30 45  1  0
 32 45  1  0
 32 46  1  0
 33 47  1  0
 34 46  1  0
 36 46  1  0
 37 45  1  0
 39 46  1  0
 40 47  1  0
 41 47  1  0
 42 47  1  0
M  END
$$$$
