6ehj_A_COA_513
     RDKit          3D

 48 50  0  0  0  0  0  0  0  0999 V2000
   23.8980   58.4080   26.8950 C   0  0  0  0  0  3  0  0  0  0  0  0
   24.0600   55.8730   23.2160 C   0  0  0  0  0  2  0  0  0  0  0  0
   24.6950   59.6310   27.2940 C   0  0  0  0  0  3  0  0  0  0  0  0
   19.7010   57.6560   18.0870 C   0  0  0  0  0  2  0  0  0  0  0  0
   24.5580   59.6450   28.7980 C   0  0  0  0  0  3  0  0  0  0  0  0
   19.2180   58.2050   19.4190 C   0  0  0  0  0  2  0  0  0  0  0  0
   23.5110   57.7260   24.5270 C   0  0  0  0  0  3  0  0  0  0  0  0
   23.1770   59.0510   29.0240 C   0  0  0  0  0  3  0  0  0  0  0  0
   22.8410   58.3290   23.3690 C   0  0  0  0  0  3  0  0  0  0  0  0
   22.1260   60.1200   29.2900 C   0  0  0  0  0  2  0  0  0  0  0  0
   17.7300   60.0870   19.3670 C   0  0  0  0  0  3  0  0  0  0  0  0
   22.8460   57.5560   22.1110 C   0  0  0  0  0  3  0  0  0  0  0  0
   16.3000   60.5690   19.4100 C   0  0  0  0  0  2  0  0  0  0  0  0
   16.1370   61.6620   20.4570 C   0  0  0  0  0  2  0  0  0  0  0  0
   22.6900   59.6580   25.0800 C   0  0  0  0  0  2  0  0  0  0  0  0
   16.1370   60.6250   22.6480 C   0  0  0  0  0  3  0  0  0  0  0  0
   16.7660   60.6650   24.0060 C   0  0  0  0  0  3  0  0  0  0  0  0
   17.8550   59.6090   24.1400 C   0  0  0  0  0  0  0  0  0  0  0  0
   18.6490   59.8870   25.4070 C   0  0  0  0  0  2  0  0  0  0  0  0
   18.7910   59.6710   22.9450 C   0  0  0  0  0  1  0  0  0  0  0  0
   17.2040   58.2390   24.2110 C   0  0  0  0  0  1  0  0  0  0  0  0
   23.4660   56.3600   22.1180 N   0  0  0  0  0  2  0  0  0  0  0  0
   24.0940   56.5190   24.3900 N   0  0  0  0  0  2  0  0  0  0  0  0
   17.8990   58.7780   19.3250 N   0  0  0  0  0  2  0  0  0  0  0  0
   22.2520   58.0360   20.9930 N   0  0  0  0  0  1  0  0  0  0  0  0
   22.3570   59.5150   23.7740 N   0  0  0  0  0  2  0  0  0  0  0  0
   16.7760   61.2950   21.6990 N   0  0  0  0  0  2  0  0  0  0  0  0
   23.3770   58.5930   25.5260 N   0  0  0  0  0  0  0  0  0  0  0  0
   19.4380   61.2500   30.8200 O   0  0  0  0  0  1  0  0  0  0  0  0
   18.3850   59.2890   29.7430 O   0  0  0  0  0  1  0  0  0  0  0  0
   26.0550   59.5000   26.8710 O   0  0  0  0  0  1  0  0  0  0  0  0
   19.4670   61.0530   28.2880 O   0  0  0  0  0  0  0  0  0  0  0  0
   25.5200   58.7530   29.3430 O   0  0  0  0  0  0  0  0  0  0  0  0
   16.9650   61.3990   28.5400 O   0  0  0  0  0  1  0  0  0  0  0  0
   22.8320   58.3260   27.8400 O   0  0  0  0  0  0  0  0  0  0  0  0
   18.1990   62.6120   26.7720 O   0  0  0  0  0  1  0  0  0  0  0  0
   20.9300   59.4980   29.7500 O   0  0  0  0  0  0  0  0  0  0  0  0
   18.6670   60.8600   19.3530 O   0  0  0  0  0  1  0  0  0  0  0  0
   17.7610   60.1480   26.4890 O   0  0  0  0  0  0  0  0  0  0  0  0
   26.7450   59.7050   31.3260 O   0  0  0  0  0  1  0  0  0  0  0  0
   27.9440   58.1720   29.7990 O   0  0  0  0  0  1  0  0  0  0  0  0
   27.3720   60.4350   29.0610 O   0  0  0  0  0  1  0  0  0  0  0  0
   15.1030   60.0140   22.4550 O   0  0  0  0  0  1  0  0  0  0  0  0
   17.3410   61.9570   24.1930 O   0  0  0  0  0  1  0  0  0  0  0  0
   19.5270   60.2710   29.6840 P   0  0  0  0  0  4  0  0  0  0  0  0
   18.0770   61.3210   27.5360 P   0  0  0  0  0  4  0  0  0  0  0  0
   26.9300   59.2730   29.8990 P   0  0  0  0  0  4  0  0  0  0  0  0
   21.4460   57.2290   18.2780 S   0  0  0  0  0  1  0  0  0  0  0  0
  1  3  1  0
  1 28  1  0
  1 35  1  0
  2 22  1  0
  2 23  1  0
  3  5  1  0
  3 31  1  0
  4  6  1  0
  4 48  1  0
  5  8  1  0
  5 33  1  0
  6 24  1  0
  7  9  1  0
  7 23  1  0
  7 28  1  0
  8 10  1  0
  8 35  1  0
  9 12  1  0
  9 26  1  0
 10 37  1  0
 11 13  1  0
 11 24  1  0
 11 38  1  0
 12 22  1  0
 12 25  1  0
 13 14  1  0
 14 27  1  0
 15 26  1  0
 15 28  1  0
 16 17  1  0
 16 27  1  0
 16 43  1  0
 17 18  1  0
 17 44  1  0
 18 19  1  0
 18 20  1  0
 18 21  1  0
 19 39  1  0
 29 45  1  0
 30 45  1  0
 32 45  1  0
 32 46  1  0
 33 47  1  0
 34 46  1  0
 36 46  1  0
 37 45  1  0
 39 46  1  0
 40 47  1  0
 41 47  1  0
 42 47  1  0
M  END
$$$$
