6ehj_A_PRO_510
     RDKit          3D

 14 35  0  0  0  0  0  0  0  0999 V2000
   24.2920   71.8890    4.8310 C   0  0  0  0  0  5  0  0  0  0  0  0
   24.3210   71.8730    4.8100 C   0  0  0  0  0  5  0  0  0  0  0  0
   23.7310   70.7700    3.9630 C   0  0  0  0  0  7  0  0  0  0  0  0
   23.7780   70.7260    3.9470 C   0  0  0  0  0  7  0  0  0  0  0  0
   23.1350   71.3390    2.6780 C   0  0  0  0  0  5  0  0  0  0  0  0
   23.2980   71.2680    2.5940 C   0  0  0  0  0  5  0  0  0  0  0  0
   21.4220   70.1920    3.6310 C   0  0  0  0  0  5  0  0  0  0  0  0
   21.4380   69.9990    3.6760 C   0  0  0  0  0  5  0  0  0  0  0  0
   22.0100   70.4190    2.3560 C   0  0  0  0  0  5  0  0  0  0  0  0
   22.0650   70.4510    2.2850 C   0  0  0  0  0  5  0  0  0  0  0  0
   22.5690   70.1480    4.5320 N   0  0  0  0  0  5  0  0  0  0  0  0
   22.5940   70.0810    4.5820 N   0  0  0  0  0  5  0  0  0  0  0  0
   23.5480   72.6870    5.2700 O   0  0  0  0  0  3  0  0  0  0  0  0
   23.5540   72.7430    5.3130 O   0  0  0  0  0  3  0  0  0  0  0  0
  1  2  1  0
  1  3  1  0
  1  4  1  0
  1 13  1  0
  1 14  1  0
  2  3  1  0
  2  4  1  0
  2 13  1  0
  2 14  1  0
  3  4  1  0
  3  5  1  0
  3  6  1  0
  3 11  1  0
  3 12  1  0
  4  5  1  0
  4  6  1  0
  4 11  1  0
  4 12  1  0
  5  6  1  0
  5  9  1  0
  5 10  1  0
  6  9  1  0
  6 10  1  0
  7  8  1  0
  7  9  1  0
  7 10  1  0
  7 11  1  0
  7 12  1  0
  8  9  1  0
  8 10  1  0
  8 11  1  0
  8 12  1  0
  9 10  1  0
 11 12  1  0
 13 14  1  0
M  END
$$$$
