6p0k_B_NLV_503
     RDKit          3D

 28 29  0  0  0  0  0  0  0  0999 V2000
   26.2840   -0.7990   10.9490 C   0  0  0  0  0  3  0  0  0  0  0  0
   25.5560    0.3670   11.0090 C   0  0  0  0  0  3  0  0  0  0  0  0
   25.1620    1.1060    9.9200 C   0  0  0  0  0  3  0  0  0  0  0  0
   25.4830    0.7260    8.6130 C   0  0  0  0  0  3  0  0  0  0  0  0
   22.3800    0.9530    6.8580 C   0  0  0  0  0  3  0  0  0  0  0  0
   21.3100    0.7380    6.0110 C   0  0  0  0  0  3  0  0  0  0  0  0
   20.0660    0.7440    6.5040 C   0  0  0  0  0  3  0  0  0  0  0  0
   19.7940    0.9230    7.8230 C   0  0  0  0  0  3  0  0  0  0  0  0
   20.9100    1.1140    8.6010 C   0  0  0  0  0  3  0  0  0  0  0  0
   26.2200   -0.4130    8.5700 C   0  0  0  0  0  3  0  0  0  0  0  0
   26.6050   -1.1560    9.6410 C   0  0  0  0  0  3  0  0  0  0  0  0
   20.6800    1.3770   10.2820 Cl  0  0  0  0  0  0  0  0  0  0  0  0
   25.3130    0.6780   11.8500 H   0  0  0  0  0  0  0  0  0  0  0  0
   24.6670    1.8790   10.0630 H   0  0  0  0  0  0  0  0  0  0  0  0
   23.8540    0.4850    5.7550 H   0  0  0  0  0  0  0  0  0  0  0  0
   21.4640    0.5920    5.1070 H   0  0  0  0  0  0  0  0  0  0  0  0
   19.3200    0.6240    5.9640 H   0  0  0  0  0  0  0  0  0  0  0  0
   18.9500    0.9260    8.2110 H   0  0  0  0  0  0  0  0  0  0  0  0
   26.4840   -0.7110    7.7300 H   0  0  0  0  0  0  0  0  0  0  0  0
   27.1010   -1.9340    9.5390 H   0  0  0  0  0  0  0  0  0  0  0  0
   23.7410    0.9580    6.4740 N   0  0  0  0  0  0  0  0  0  0  0  0
   22.1740    1.1390    8.2180 N   0  0  0  0  0  2  0  0  0  0  0  0
   26.8040   -0.9150   13.4820 O   0  0  0  0  0  1  0  0  0  0  0  0
   27.7610   -2.6190   12.0680 O   0  0  0  0  0  1  0  0  0  0  0  0
   26.0920    1.7510    6.3990 O   0  0  0  0  0  1  0  0  0  0  0  0
   24.4690    2.9270    7.8500 O   0  0  0  0  0  1  0  0  0  0  0  0
   24.9640    1.7430    7.2650 S   0  0  0  0  0  4  0  0  0  0  0  0
   26.7260   -1.7040   12.3290 S   0  0  0  0  0  3  0  0  0  0  0  0
  1  2  1  0
  1 11  1  0
  1 28  1  0
  2  3  1  0
  2 13  1  0
  3  4  1  0
  3 14  1  0
  4 10  1  0
  4 27  1  0
  5  6  1  0
  5 21  1  0
  5 22  1  0
  6  7  1  0
  6 16  1  0
  7  8  1  0
  7 17  1  0
  8  9  1  0
  8 18  1  0
  9 12  1  0
  9 22  1  0
 10 11  1  0
 10 19  1  0
 11 20  1  0
 15 21  1  0
 21 27  1  0
 23 28  1  0
 24 28  1  0
 25 27  1  0
 26 27  1  0
M  END
$$$$
