6vcu_C_R27_201
     RDKit          3D

134137  0  0  0  0  0  0  0  0999 V2000
   13.2010   -8.9990    8.8330 C   0  0  0  0  0  0  0  0  0  0  0  0
   10.5990  -13.7550   14.8630 C   0  0  0  0  0  3  0  0  0  0  0  0
   10.3100  -13.7140   16.3370 C   0  0  0  0  0  0  0  0  0  0  0  0
    8.2000  -12.4610   17.2100 C   0  0  0  0  0  3  0  0  0  0  0  0
    8.0700  -14.9810   16.3800 C   0  0  0  0  0  0  0  0  0  0  0  0
    8.7760  -16.0960   17.1070 C   0  0  0  0  0  0  0  0  0  0  0  0
   10.2070  -16.1530   16.7730 C   0  0  0  0  0  0  0  0  0  0  0  0
   10.9380  -14.9050   17.0060 C   0  0  0  0  0  0  0  0  0  0  0  0
    8.9900  -14.4130   11.7720 C   0  0  0  0  0  0  0  0  0  0  0  0
    9.4860  -14.2540   10.3040 C   0  0  0  0  0  0  0  0  0  0  0  0
    8.5980  -15.0600    9.3040 C   0  0  0  0  0  0  0  0  0  0  0  0
   13.0580   -8.5450   10.2760 C   0  0  0  0  0  0  0  0  0  0  0  0
    7.2130  -14.3620    8.9780 C   0  0  0  0  0  3  0  0  0  0  0  0
    6.0320  -15.3320    8.5850 C   0  0  0  0  0  0  0  0  0  0  0  0
    5.2220  -15.6230    9.8330 C   0  0  0  0  0  3  0  0  0  0  0  0
    5.2990  -16.8080   10.5030 C   0  0  0  0  0  3  0  0  0  0  0  0
    4.4440  -17.0080   11.8190 C   0  0  0  0  0  0  0  0  0  0  0  0
    5.3080  -16.7350   13.0620 C   0  0  0  0  0  0  0  0  0  0  0  0
    4.7090  -17.5070   14.2020 C   0  0  0  0  0  0  0  0  0  0  0  0
    5.4010  -15.1930   13.3210 C   0  0  0  0  0  0  0  0  0  0  0  0
    4.2250  -14.6540   14.1300 C   0  0  0  0  0  0  0  0  0  0  0  0
    1.8380  -14.7070   14.2000 C   0  0  0  0  0  0  0  0  0  0  0  0
   14.1790   -7.1950   11.8760 C   0  0  0  0  0  0  0  0  0  0  0  0
    4.4910  -13.2160   14.5140 C   0  0  0  0  0  0  0  0  0  0  0  0
    5.1350  -12.2260   13.5340 C   0  0  0  0  0  0  0  0  0  0  0  0
    4.8120  -11.6330   11.2650 C   0  0  0  0  0  0  0  0  0  0  0  0
    5.3690  -10.9660   14.2410 C   0  0  0  0  0  0  0  0  0  0  0  0
    6.2090  -11.0650   15.4830 C   0  0  0  0  0  0  0  0  0  0  0  0
    6.2640   -9.6590   16.2050 C   0  0  0  0  0  0  0  0  0  0  0  0
    5.6750  -12.1410   16.4290 C   0  0  0  0  0  0  0  0  0  0  0  0
    6.6760  -12.5470   17.5120 C   0  0  0  0  0  3  0  0  0  0  0  0
    6.2410  -17.9750   10.0380 C   0  0  0  0  0  0  0  0  0  0  0  0
    5.1450  -14.6800    7.5490 C   0  0  0  0  0  0  0  0  0  0  0  0
   12.6550   -9.6990   11.2060 C   0  0  0  0  0  0  0  0  0  0  0  0
    5.9210  -14.1350    6.3600 C   0  0  0  0  0  3  0  0  0  0  0  0
    5.7000  -14.6120    5.1640 C   0  0  0  0  0  3  0  0  0  0  0  0
    7.0770  -10.6640    8.7520 C   0  0  0  0  0  3  0  0  0  0  0  0
    7.7620   -9.2990    8.9560 C   0  0  0  0  0  0  0  0  0  0  0  0
    9.0560  -15.8610   12.2480 C   0  0  0  0  0  0  0  0  0  0  0  0
   11.3030  -10.6340    9.2830 C   0  0  0  0  0  0  0  0  0  0  0  0
   11.8610   -9.5500    8.3450 C   0  0  0  0  0  0  0  0  0  0  0  0
   11.3300  -10.3120   10.7940 C   0  0  0  0  0  0  0  0  0  0  0  0
   11.1200  -11.7010   11.4960 C   0  0  0  0  0  3  0  0  0  0  0  0
    9.9400  -12.1210   12.0730 C   0  0  0  0  0  3  0  0  0  0  0  0
    8.6510  -11.2590   12.1110 C   0  0  0  0  0  0  0  0  0  0  0  0
    9.9020  -13.5400   12.6330 C   0  0  0  0  0  0  0  0  0  0  0  0
   13.2640   -7.1980    8.3660 H   0  0  0  0  0  0  0  0  0  0  0  0
   11.8450  -12.2830   11.5250 H   0  0  0  0  0  0  0  0  0  0  0  0
    8.4140  -11.0700   13.0330 H   0  0  0  0  0  0  0  0  0  0  0  0
    7.9260  -11.7410   11.6830 H   0  0  0  0  0  0  0  0  0  0  0  0
    8.8050  -10.4250   11.6400 H   0  0  0  0  0  0  0  0  0  0  0  0
   10.7980  -13.9110   12.6130 H   0  0  0  0  0  0  0  0  0  0  0  0
   10.7070  -12.8860   16.6490 H   0  0  0  0  0  0  0  0  0  0  0  0
    8.0660  -15.1640   15.4280 H   0  0  0  0  0  0  0  0  0  0  0  0
    7.1560  -14.9150   16.6970 H   0  0  0  0  0  0  0  0  0  0  0  0
    8.3630  -16.9400   16.8640 H   0  0  0  0  0  0  0  0  0  0  0  0
    8.6810  -15.9590   18.0620 H   0  0  0  0  0  0  0  0  0  0  0  0
   13.8980   -9.6700    8.7560 H   0  0  0  0  0  0  0  0  0  0  0  0
   10.2910  -16.3830   15.8350 H   0  0  0  0  0  0  0  0  0  0  0  0
   10.6160  -16.8490   17.3100 H   0  0  0  0  0  0  0  0  0  0  0  0
   10.9720  -14.7400   17.9620 H   0  0  0  0  0  0  0  0  0  0  0  0
   11.8420  -15.0080   16.6690 H   0  0  0  0  0  0  0  0  0  0  0  0
    8.0600  -14.1460   11.8380 H   0  0  0  0  0  0  0  0  0  0  0  0
    9.4460  -13.3040   10.1140 H   0  0  0  0  0  0  0  0  0  0  0  0
   11.3240  -14.1200   10.2490 H   0  0  0  0  0  0  0  0  0  0  0  0
    9.0900  -15.1660    8.4740 H   0  0  0  0  0  0  0  0  0  0  0  0
    8.4190  -15.9330    9.6870 H   0  0  0  0  0  0  0  0  0  0  0  0
    6.3890  -16.1530    8.2120 H   0  0  0  0  0  0  0  0  0  0  0  0
   12.3930   -7.8400   10.2990 H   0  0  0  0  0  0  0  0  0  0  0  0
    4.6470  -14.9660   10.1540 H   0  0  0  0  0  0  0  0  0  0  0  0
    4.1100  -17.9180   11.8510 H   0  0  0  0  0  0  0  0  0  0  0  0
    3.6900  -16.3970   11.8100 H   0  0  0  0  0  0  0  0  0  0  0  0
    6.2230  -17.0340   12.9440 H   0  0  0  0  0  0  0  0  0  0  0  0
    3.7610  -17.3120   14.2610 H   0  0  0  0  0  0  0  0  0  0  0  0
    5.1450  -17.2500   15.0300 H   0  0  0  0  0  0  0  0  0  0  0  0
    4.8370  -18.4570   14.0510 H   0  0  0  0  0  0  0  0  0  0  0  0
    5.4280  -14.7350   12.4660 H   0  0  0  0  0  0  0  0  0  0  0  0
    6.2230  -15.0070   13.8020 H   0  0  0  0  0  0  0  0  0  0  0  0
    4.1320  -15.1960   14.9290 H   0  0  0  0  0  0  0  0  0  0  0  0
   14.9530   -6.6130   11.9150 H   0  0  0  0  0  0  0  0  0  0  0  0
    1.0680  -14.5160   13.6410 H   0  0  0  0  0  0  0  0  0  0  0  0
    1.9230  -14.0180   14.8780 H   0  0  0  0  0  0  0  0  0  0  0  0
    1.7200  -15.5690   14.6280 H   0  0  0  0  0  0  0  0  0  0  0  0
    3.6060  -12.8260   14.6000 H   0  0  0  0  0  0  0  0  0  0  0  0
    5.9700  -12.5390   13.1530 H   0  0  0  0  0  0  0  0  0  0  0  0
    5.7350  -11.4010   11.4540 H   0  0  0  0  0  0  0  0  0  0  0  0
    4.3530  -10.8590   10.9030 H   0  0  0  0  0  0  0  0  0  0  0  0
    4.7860  -12.3560   10.6200 H   0  0  0  0  0  0  0  0  0  0  0  0
    4.5060  -10.5990   14.4910 H   0  0  0  0  0  0  0  0  0  0  0  0
    5.8100  -10.3570   13.6290 H   0  0  0  0  0  0  0  0  0  0  0  0
   14.1320   -7.7250   12.6880 H   0  0  0  0  0  0  0  0  0  0  0  0
    7.1200  -11.2940   15.2410 H   0  0  0  0  0  0  0  0  0  0  0  0
    5.9690   -9.7540   17.1240 H   0  0  0  0  0  0  0  0  0  0  0  0
    5.6820   -9.0350   15.7430 H   0  0  0  0  0  0  0  0  0  0  0  0
    7.1730   -9.3230   16.1910 H   0  0  0  0  0  0  0  0  0  0  0  0
    4.1630  -12.4330   17.4320 H   0  0  0  0  0  0  0  0  0  0  0  0
    7.1170  -17.6180    9.8230 H   0  0  0  0  0  0  0  0  0  0  0  0
    5.8640  -18.4020    9.2530 H   0  0  0  0  0  0  0  0  0  0  0  0
    6.3250  -18.6270   10.7520 H   0  0  0  0  0  0  0  0  0  0  0  0
    4.6640  -13.9480    7.9680 H   0  0  0  0  0  0  0  0  0  0  0  0
    4.5060  -15.3350    7.2300 H   0  0  0  0  0  0  0  0  0  0  0  0
   13.3750   -6.6590   11.7930 H   0  0  0  0  0  0  0  0  0  0  0  0
    6.5520  -13.4630    6.4840 H   0  0  0  0  0  0  0  0  0  0  0  0
    5.0750  -15.2890    5.0380 H   0  0  0  0  0  0  0  0  0  0  0  0
    6.1740  -14.2780    4.4380 H   0  0  0  0  0  0  0  0  0  0  0  0
    8.4060  -11.9210    9.6940 H   0  0  0  0  0  0  0  0  0  0  0  0
    7.1700   -8.7090    9.4470 H   0  0  0  0  0  0  0  0  0  0  0  0
    8.5840   -9.4210    9.4560 H   0  0  0  0  0  0  0  0  0  0  0  0
    7.9650   -8.9070    8.0920 H   0  0  0  0  0  0  0  0  0  0  0  0
    8.5540  -16.4240   11.6380 H   0  0  0  0  0  0  0  0  0  0  0  0
    8.6740  -15.9260   13.1370 H   0  0  0  0  0  0  0  0  0  0  0  0
    9.9810  -16.1520   12.2710 H   0  0  0  0  0  0  0  0  0  0  0  0
   12.5780   -9.3620   12.1130 H   0  0  0  0  0  0  0  0  0  0  0  0
   10.3800  -10.7970    9.0310 H   0  0  0  0  0  0  0  0  0  0  0  0
   11.8200  -11.4430    9.1420 H   0  0  0  0  0  0  0  0  0  0  0  0
   11.9830   -9.9320    7.4620 H   0  0  0  0  0  0  0  0  0  0  0  0
   11.2230   -8.8220    8.2940 H   0  0  0  0  0  0  0  0  0  0  0  0
   13.3420  -10.3830   11.1770 H   0  0  0  0  0  0  0  0  0  0  0  0
   10.6380   -9.6860   11.0570 H   0  0  0  0  0  0  0  0  0  0  0  0
    8.7980  -13.6660   16.6440 N   0  0  0  0  0  0  0  0  0  0  0  0
    6.9410  -13.1340    9.0190 N   0  0  0  0  0  2  0  0  0  0  0  0
    7.6610  -11.9190    9.2650 N   0  0  0  0  0  0  0  0  0  0  0  0
   13.5770   -7.9120    8.0290 O   0  0  0  0  0  0  0  0  0  0  0  0
    4.4970  -11.7500   17.0530 O   0  0  0  0  0  0  0  0  0  0  0  0
    6.3510  -12.9780   18.5630 O   0  0  0  0  0  1  0  0  0  0  0  0
    6.0420  -10.6870    8.1630 O   0  0  0  0  0  1  0  0  0  0  0  0
   14.2920   -8.0670   10.7420 O   0  0  0  0  0  0  0  0  0  0  0  0
    9.4600  -13.5280   13.9660 O   0  0  0  0  0  0  0  0  0  0  0  0
    8.8140  -11.4820   17.4040 O   0  0  0  0  0  1  0  0  0  0  0  0
   11.7050  -13.9370   14.4910 O   0  0  0  0  0  1  0  0  0  0  0  0
   10.7530  -14.7410   10.1610 O   0  0  0  0  0  0  0  0  0  0  0  0
    3.0200  -14.7310   13.3930 O   0  0  0  0  0  0  0  0  0  0  0  0
    4.1730  -12.0430   12.4620 O   0  0  0  0  0  0  0  0  0  0  0  0
    5.3570  -13.3590   15.6890 O   0  0  0  0  0  0  0  0  0  0  0  0
  1 12  1  0
  1 41  1  0
  1 58  1  0
  1123  1  0
  2  3  1  0
  2128  1  0
  2130  1  0
  3  8  1  0
  3 53  1  0
  3120  1  0
  4 31  1  0
  4120  1  0
  4129  1  0
  5  6  1  0
  5 54  1  0
  5 55  1  0
  5120  1  0
  6  7  1  0
  6 56  1  0
  6 57  1  0
  7  8  1  0
  7 59  1  0
  7 60  1  0
  8 61  1  0
  8 62  1  0
  9 10  1  0
  9 39  1  0
  9 46  1  0
  9 63  1  0
 10 11  1  0
 10 64  1  0
 10131  1  0
 11 13  1  0
 11 66  1  0
 11 67  1  0
 12 34  1  0
 12 69  1  0
 12127  1  0
 13 14  1  0
 13121  1  0
 14 15  1  0
 14 33  1  0
 14 68  1  0
 15 16  1  0
 15 70  1  0
 16 17  1  0
 16 32  1  0
 17 18  1  0
 17 71  1  0
 17 72  1  0
 18 19  1  0
 18 20  1  0
 18 73  1  0
 19 74  1  0
 19 75  1  0
 19 76  1  0
 20 21  1  0
 20 77  1  0
 20 78  1  0
 21 24  1  0
 21 79  1  0
 21132  1  0
 22 81  1  0
 22 82  1  0
 22 83  1  0
 22132  1  0
 23 80  1  0
 23 91  1  0
 23102  1  0
 23127  1  0
 24 25  1  0
 24 84  1  0
 24134  1  0
 25 27  1  0
 25 85  1  0
 25133  1  0
 26 86  1  0
 26 87  1  0
 26 88  1  0
 26133  1  0
 27 28  1  0
 27 89  1  0
 27 90  1  0
 28 29  1  0
 28 30  1  0
 28 92  1  0
 29 93  1  0
 29 94  1  0
 29 95  1  0
 30 31  1  0
 30124  1  0
 30134  1  0
 31125  1  0
 32 97  1  0
 32 98  1  0
 32 99  1  0
 33 35  1  0
 33100  1  0
 33101  1  0
 34 42  1  0
 34113  1  0
 34118  1  0
 35 36  1  0
 35103  1  0
 36104  1  0
 36105  1  0
 37 38  1  0
 37122  1  0
 37126  1  0
 38107  1  0
 38108  1  0
 38109  1  0
 39110  1  0
 39111  1  0
 39112  1  0
 40 41  1  0
 40 42  1  0
 40114  1  0
 40115  1  0
 41116  1  0
 41117  1  0
 42 43  1  0
 42119  1  0
 43 44  1  0
 43 48  1  0
 44 45  1  0
 44 46  1  0
 45 49  1  0
 45 50  1  0
 45 51  1  0
 46 52  1  0
 46128  1  0
 47123  1  0
 65131  1  0
 96124  1  0
106122  1  0
121122  1  0
M  END
$$$$
