6vcu_D_R27_202
     RDKit          3D

134137  0  0  0  0  0  0  0  0999 V2000
    1.2140  -15.8720    2.5150 C   0  0  0  0  0  0  0  0  0  0  0  0
    6.5940  -16.0280   -3.4830 C   0  0  0  0  0  3  0  0  0  0  0  0
    6.7060  -15.7800   -4.9620 C   0  0  0  0  0  0  0  0  0  0  0  0
    6.7150  -13.3190   -5.8520 C   0  0  0  0  0  3  0  0  0  0  0  0
    8.9350  -14.5140   -5.0050 C   0  0  0  0  0  0  0  0  0  0  0  0
    9.5510  -15.7100   -5.6830 C   0  0  0  0  0  0  0  0  0  0  0  0
    8.8480  -16.9610   -5.3760 C   0  0  0  0  0  0  0  0  0  0  0  0
    7.4070  -16.9340   -5.6330 C   0  0  0  0  0  0  0  0  0  0  0  0
    8.0030  -14.9830   -0.3740 C   0  0  0  0  0  0  0  0  0  0  0  0
    7.5940  -15.3420    1.0860 C   0  0  0  0  0  0  0  0  0  0  0  0
    8.7280  -14.9700    2.0840 C   0  0  0  0  0  0  0  0  0  0  0  0
    0.8760  -15.5520    1.0690 C   0  0  0  0  0  0  0  0  0  0  0  0
    8.8170  -13.4190    2.3920 C   0  0  0  0  0  3  0  0  0  0  0  0
   10.2540  -12.8900    2.7700 C   0  0  0  0  0  0  0  0  0  0  0  0
   10.9120  -12.3270    1.5270 C   0  0  0  0  0  3  0  0  0  0  0  0
   11.8920  -12.9940    0.8590 C   0  0  0  0  0  3  0  0  0  0  0  0
   12.5110  -12.3500   -0.4510 C   0  0  0  0  0  0  0  0  0  0  0  0
   11.8660  -12.9460   -1.7100 C   0  0  0  0  0  0  0  0  0  0  0  0
   12.8170  -12.7600   -2.8560 C   0  0  0  0  0  0  0  0  0  0  0  0
   10.4780  -12.2610   -1.9400 C   0  0  0  0  0  0  0  0  0  0  0  0
   10.5870  -10.9860   -2.7700 C   0  0  0  0  0  0  0  0  0  0  0  0
   11.6930   -8.8570   -2.8870 C   0  0  0  0  0  0  0  0  0  0  0  0
   -0.8750  -15.8560   -0.5000 C   0  0  0  0  0  0  0  0  0  0  0  0
    9.2020  -10.5030   -3.1220 C   0  0  0  0  0  0  0  0  0  0  0  0
    8.0260  -10.6350   -2.1440 C   0  0  0  0  0  0  0  0  0  0  0  0
    7.6620  -10.1010    0.1470 C   0  0  0  0  0  0  0  0  0  0  0  0
    6.8010  -10.2370   -2.8360 C   0  0  0  0  0  0  0  0  0  0  0  0
    6.4890  -10.9590   -4.1170 C   0  0  0  0  0  0  0  0  0  0  0  0
    5.2430  -10.2900   -4.8160 C   0  0  0  0  0  0  0  0  0  0  0  0
    7.6830  -10.9760   -5.0750 C   0  0  0  0  0  0  0  0  0  0  0  0
    7.5400  -12.0370   -6.1670 C   0  0  0  0  0  3  0  0  0  0  0  0
   12.4120  -14.4030    1.3290 C   0  0  0  0  0  0  0  0  0  0  0  0
   10.1500  -11.8110    3.8270 C   0  0  0  0  0  0  0  0  0  0  0  0
    2.0740  -15.8290    0.1550 C   0  0  0  0  0  0  0  0  0  0  0  0
    9.2570  -12.2030    4.9950 C   0  0  0  0  0  3  0  0  0  0  0  0
    9.6890  -12.0690    6.2220 C   0  0  0  0  0  3  0  0  0  0  0  0
    5.6410  -11.4760    2.5900 C   0  0  0  0  0  3  0  0  0  0  0  0
    4.1140  -11.3990    2.3980 C   0  0  0  0  0  0  0  0  0  0  0  0
    9.2220  -15.7530   -0.8690 C   0  0  0  0  0  0  0  0  0  0  0  0
    3.5400  -14.9700    2.0450 C   0  0  0  0  0  0  0  0  0  0  0  0
    2.3330  -14.9600    2.9960 C   0  0  0  0  0  0  0  0  0  0  0  0
    3.2480  -14.9410    0.5270 C   0  0  0  0  0  0  0  0  0  0  0  0
    4.5690  -15.4740   -0.1460 C   0  0  0  0  0  3  0  0  0  0  0  0
    5.5420  -14.6710   -0.7040 C   0  0  0  0  0  3  0  0  0  0  0  0
    5.4360  -13.1230   -0.7260 C   0  0  0  0  0  0  0  0  0  0  0  0
    6.8040  -15.3350   -1.2490 C   0  0  0  0  0  0  0  0  0  0  0  0
   -0.5750  -16.0730    2.9510 H   0  0  0  0  0  0  0  0  0  0  0  0
    4.7010  -16.3940   -0.1690 H   0  0  0  0  0  0  0  0  0  0  0  0
    4.5900  -12.8510   -0.3370 H   0  0  0  0  0  0  0  0  0  0  0  0
    6.1650  -12.7410   -0.2140 H   0  0  0  0  0  0  0  0  0  0  0  0
    5.4850  -12.8080   -1.6430 H   0  0  0  0  0  0  0  0  0  0  0  0
    6.7060  -16.3000   -1.2270 H   0  0  0  0  0  0  0  0  0  0  0  0
    5.7890  -15.7110   -5.2710 H   0  0  0  0  0  0  0  0  0  0  0  0
    9.0820  -14.5760   -4.0480 H   0  0  0  0  0  0  0  0  0  0  0  0
    9.3520  -13.7050   -5.3400 H   0  0  0  0  0  0  0  0  0  0  0  0
   10.4730  -15.7920   -5.3910 H   0  0  0  0  0  0  0  0  0  0  0  0
    9.5320  -15.5690   -6.6420 H   0  0  0  0  0  0  0  0  0  0  0  0
    1.4770  -16.8010    2.6050 H   0  0  0  0  0  0  0  0  0  0  0  0
    8.9840  -17.1640   -4.4380 H   0  0  0  0  0  0  0  0  0  0  0  0
    9.2380  -17.6680   -5.9140 H   0  0  0  0  0  0  0  0  0  0  0  0
    7.2650  -16.8690   -6.5910 H   0  0  0  0  0  0  0  0  0  0  0  0
    7.0190  -17.7620   -5.3100 H   0  0  0  0  0  0  0  0  0  0  0  0
    8.2460  -14.0450   -0.4130 H   0  0  0  0  0  0  0  0  0  0  0  0
    6.7790  -14.8450    1.2580 H   0  0  0  0  0  0  0  0  0  0  0  0
    6.5910  -16.8320    1.5170 H   0  0  0  0  0  0  0  0  0  0  0  0
    9.5750  -15.2560    1.7070 H   0  0  0  0  0  0  0  0  0  0  0  0
    8.5700  -15.4390    2.9180 H   0  0  0  0  0  0  0  0  0  0  0  0
   10.7860  -13.6190    3.1250 H   0  0  0  0  0  0  0  0  0  0  0  0
    0.6020  -14.6230    1.0140 H   0  0  0  0  0  0  0  0  0  0  0  0
   10.6360  -11.4980    1.2090 H   0  0  0  0  0  0  0  0  0  0  0  0
   13.4660  -12.5200   -0.4700 H   0  0  0  0  0  0  0  0  0  0  0  0
   12.3620  -11.3920   -0.4370 H   0  0  0  0  0  0  0  0  0  0  0  0
   11.6990  -13.8980   -1.6200 H   0  0  0  0  0  0  0  0  0  0  0  0
   12.3360  -12.8530   -3.6930 H   0  0  0  0  0  0  0  0  0  0  0  0
   13.5160  -13.4310   -2.8080 H   0  0  0  0  0  0  0  0  0  0  0  0
   13.2120  -11.8760   -2.8070 H   0  0  0  0  0  0  0  0  0  0  0  0
   10.0910  -12.0420   -1.0780 H   0  0  0  0  0  0  0  0  0  0  0  0
    9.8930  -12.8840   -2.3990 H   0  0  0  0  0  0  0  0  0  0  0  0
   11.0880  -11.1920   -3.5740 H   0  0  0  0  0  0  0  0  0  0  0  0
   -0.3670  -15.1250   -0.8860 H   0  0  0  0  0  0  0  0  0  0  0  0
   11.0030   -8.1760   -2.8860 H   0  0  0  0  0  0  0  0  0  0  0  0
   12.5160   -8.4840   -2.5330 H   0  0  0  0  0  0  0  0  0  0  0  0
   11.8430   -9.1620   -3.7960 H   0  0  0  0  0  0  0  0  0  0  0  0
    9.2850   -9.5370   -3.1590 H   0  0  0  0  0  0  0  0  0  0  0  0
    7.9290  -11.5310   -1.7850 H   0  0  0  0  0  0  0  0  0  0  0  0
    8.3140  -10.1080    0.8650 H   0  0  0  0  0  0  0  0  0  0  0  0
    6.9520   -9.4770    0.3610 H   0  0  0  0  0  0  0  0  0  0  0  0
    7.2900  -10.9900    0.0390 H   0  0  0  0  0  0  0  0  0  0  0  0
    6.0590  -10.3790   -2.2280 H   0  0  0  0  0  0  0  0  0  0  0  0
    6.8710   -9.2910   -3.0390 H   0  0  0  0  0  0  0  0  0  0  0  0
   -1.7460  -15.5310   -0.2200 H   0  0  0  0  0  0  0  0  0  0  0  0
    6.2520  -11.8760   -3.9080 H   0  0  0  0  0  0  0  0  0  0  0  0
    4.9870  -10.8130   -5.5910 H   0  0  0  0  0  0  0  0  0  0  0  0
    5.4720   -9.3900   -5.0950 H   0  0  0  0  0  0  0  0  0  0  0  0
    4.5020  -10.2550   -4.1910 H   0  0  0  0  0  0  0  0  0  0  0  0
    7.8900   -9.1470   -5.0960 H   0  0  0  0  0  0  0  0  0  0  0  0
   12.9820  -14.2960    2.1060 H   0  0  0  0  0  0  0  0  0  0  0  0
   12.9180  -14.8180    0.6120 H   0  0  0  0  0  0  0  0  0  0  0  0
   11.6570  -14.9670    1.5590 H   0  0  0  0  0  0  0  0  0  0  0  0
    9.7920  -11.0080    3.4170 H   0  0  0  0  0  0  0  0  0  0  0  0
   11.0390  -11.6210    4.1660 H   0  0  0  0  0  0  0  0  0  0  0  0
   -0.9890  -16.5560   -1.1610 H   0  0  0  0  0  0  0  0  0  0  0  0
    8.4040  -12.5380    4.8360 H   0  0  0  0  0  0  0  0  0  0  0  0
    9.1450  -12.3090    6.9360 H   0  0  0  0  0  0  0  0  0  0  0  0
   10.5430  -11.7380    6.3820 H   0  0  0  0  0  0  0  0  0  0  0  0
    6.0970  -13.2860    1.7250 H   0  0  0  0  0  0  0  0  0  0  0  0
    3.8720  -11.8160    1.5560 H   0  0  0  0  0  0  0  0  0  0  0  0
    3.6720  -11.8630    3.1260 H   0  0  0  0  0  0  0  0  0  0  0  0
    3.8350  -10.4700    2.3900 H   0  0  0  0  0  0  0  0  0  0  0  0
    9.2690  -15.6970   -1.8360 H   0  0  0  0  0  0  0  0  0  0  0  0
    9.1470  -16.6830   -0.6020 H   0  0  0  0  0  0  0  0  0  0  0  0
   10.0250  -15.3700   -0.4840 H   0  0  0  0  0  0  0  0  0  0  0  0
    1.8210  -15.6560   -0.7650 H   0  0  0  0  0  0  0  0  0  0  0  0
    4.0490  -15.7750    2.2290 H   0  0  0  0  0  0  0  0  0  0  0  0
    4.0830  -14.1940    2.2530 H   0  0  0  0  0  0  0  0  0  0  0  0
    2.6230  -15.2550    3.8740 H   0  0  0  0  0  0  0  0  0  0  0  0
    1.9930  -14.0530    3.0600 H   0  0  0  0  0  0  0  0  0  0  0  0
    2.3360  -16.7590    0.2450 H   0  0  0  0  0  0  0  0  0  0  0  0
    3.0320  -14.0490    0.2140 H   0  0  0  0  0  0  0  0  0  0  0  0
    7.4370  -14.4580   -5.2810 N   0  0  0  0  0  0  0  0  0  0  0  0
    7.8780  -12.5770    2.3590 N   0  0  0  0  0  2  0  0  0  0  0  0
    6.4600  -12.6160    2.1250 N   0  0  0  0  0  0  0  0  0  0  0  0
    0.0780  -15.6570    3.3000 O   0  0  0  0  0  0  0  0  0  0  0  0
    7.8800   -9.7490   -5.6950 O   0  0  0  0  0  0  0  0  0  0  0  0
    8.0490  -11.9560   -7.2320 O   0  0  0  0  0  1  0  0  0  0  0  0
    6.1590  -10.5620    3.1390 O   0  0  0  0  0  1  0  0  0  0  0  0
   -0.1730  -16.3800    0.6360 O   0  0  0  0  0  0  0  0  0  0  0  0
    6.9950  -14.9440   -2.5880 O   0  0  0  0  0  0  0  0  0  0  0  0
    5.5580  -13.3460   -6.0480 O   0  0  0  0  0  1  0  0  0  0  0  0
    6.1650  -17.0650   -3.1010 O   0  0  0  0  0  1  0  0  0  0  0  0
    7.3820  -16.6810    1.2460 O   0  0  0  0  0  0  0  0  0  0  0  0
   11.2780   -9.9630   -2.0720 O   0  0  0  0  0  0  0  0  0  0  0  0
    8.2930   -9.7050   -1.0590 O   0  0  0  0  0  0  0  0  0  0  0  0
    8.9100  -11.2740   -4.3370 O   0  0  0  0  0  0  0  0  0  0  0  0
  1 12  1  0
  1 41  1  0
  1 58  1  0
  1123  1  0
  2  3  1  0
  2128  1  0
  2130  1  0
  3  8  1  0
  3 53  1  0
  3120  1  0
  4 31  1  0
  4120  1  0
  4129  1  0
  5  6  1  0
  5 54  1  0
  5 55  1  0
  5120  1  0
  6  7  1  0
  6 56  1  0
  6 57  1  0
  7  8  1  0
  7 59  1  0
  7 60  1  0
  8 61  1  0
  8 62  1  0
  9 10  1  0
  9 39  1  0
  9 46  1  0
  9 63  1  0
 10 11  1  0
 10 64  1  0
 10131  1  0
 11 13  1  0
 11 66  1  0
 11 67  1  0
 12 34  1  0
 12 69  1  0
 12127  1  0
 13 14  1  0
 13121  1  0
 14 15  1  0
 14 33  1  0
 14 68  1  0
 15 16  1  0
 15 70  1  0
 16 17  1  0
 16 32  1  0
 17 18  1  0
 17 71  1  0
 17 72  1  0
 18 19  1  0
 18 20  1  0
 18 73  1  0
 19 74  1  0
 19 75  1  0
 19 76  1  0
 20 21  1  0
 20 77  1  0
 20 78  1  0
 21 24  1  0
 21 79  1  0
 21132  1  0
 22 81  1  0
 22 82  1  0
 22 83  1  0
 22132  1  0
 23 80  1  0
 23 91  1  0
 23102  1  0
 23127  1  0
 24 25  1  0
 24 84  1  0
 24134  1  0
 25 27  1  0
 25 85  1  0
 25133  1  0
 26 86  1  0
 26 87  1  0
 26 88  1  0
 26133  1  0
 27 28  1  0
 27 89  1  0
 27 90  1  0
 28 29  1  0
 28 30  1  0
 28 92  1  0
 29 93  1  0
 29 94  1  0
 29 95  1  0
 30 31  1  0
 30124  1  0
 30134  1  0
 31125  1  0
 32 97  1  0
 32 98  1  0
 32 99  1  0
 33 35  1  0
 33100  1  0
 33101  1  0
 34 42  1  0
 34113  1  0
 34118  1  0
 35 36  1  0
 35103  1  0
 36104  1  0
 36105  1  0
 37 38  1  0
 37122  1  0
 37126  1  0
 38107  1  0
 38108  1  0
 38109  1  0
 39110  1  0
 39111  1  0
 39112  1  0
 40 41  1  0
 40 42  1  0
 40114  1  0
 40115  1  0
 41116  1  0
 41117  1  0
 42 43  1  0
 42119  1  0
 43 44  1  0
 43 48  1  0
 44 45  1  0
 44 46  1  0
 45 49  1  0
 45 50  1  0
 45 51  1  0
 46 52  1  0
 46128  1  0
 47123  1  0
 65131  1  0
 96124  1  0
106122  1  0
121122  1  0
M  END
$$$$
