8ouu_B_W49_1405
     RDKit          3D

 28 31  0  0  0  0  0  0  0  0999 V2000
   -4.7180  -15.1170  -21.5820 C   0  0  0  0  0  1  0  0  0  0  0  0
   -3.8190  -15.9040  -20.6350 C   0  0  0  0  0  3  0  0  0  0  0  0
   -6.0620  -11.1080  -15.7430 C   0  0  0  0  0  3  0  0  0  0  0  0
   -5.3330  -10.5830  -14.6110 C   0  0  0  0  0  3  0  0  0  0  0  0
   -5.4470  -12.3370  -16.0590 C   0  0  0  0  0  3  0  0  0  0  0  0
   -5.4890   -9.4020  -13.8790 C   0  0  0  0  0  2  0  0  0  0  0  0
   -5.5610   -8.4230  -13.2070 C   0  0  0  0  0  1  0  0  0  0  0  0
   -2.3510  -15.5170  -20.7870 C   0  0  0  0  0  3  0  0  0  0  0  0
   -1.6320  -15.8630  -21.9240 C   0  0  0  0  0  2  0  0  0  0  0  0
   -0.2970  -15.5090  -22.0530 C   0  0  0  0  0  2  0  0  0  0  0  0
    0.3390  -14.8020  -21.0510 C   0  0  0  0  0  2  0  0  0  0  0  0
   -0.3590  -14.4530  -19.9180 C   0  0  0  0  0  2  0  0  0  0  0  0
   -4.8640  -14.6000  -18.7800 C   0  0  0  0  0  2  0  0  0  0  0  0
   -1.6970  -14.8080  -19.7840 C   0  0  0  0  0  2  0  0  0  0  0  0
   -5.2610  -14.4080  -17.4870 C   0  0  0  0  0  3  0  0  0  0  0  0
   -4.9820  -15.4730  -16.5190 C   0  0  0  0  0  3  0  0  0  0  0  0
   -3.9550  -16.7860  -18.3580 C   0  0  0  0  0  3  0  0  0  0  0  0
   -5.9250  -13.1300  -17.1120 C   0  0  0  0  0  3  0  0  0  0  0  0
   -7.0020  -12.6650  -17.8710 C   0  0  0  0  0  2  0  0  0  0  0  0
   -7.5800  -11.4610  -17.5330 C   0  0  0  0  0  3  0  0  0  0  0  0
   -7.1490  -10.6660  -16.4970 C   0  0  0  0  0  2  0  0  0  0  0  0
   -8.6420  -11.0270  -18.2740 F   0  0  0  0  0  0  0  0  0  0  0  0
   -4.2450  -15.7490  -19.2220 N   0  0  0  0  0  0  0  0  0  0  0  0
   -4.3480  -16.5890  -17.0500 N   0  0  0  0  0  2  0  0  0  0  0  0
   -4.3570  -11.4710  -14.3140 N   0  0  0  0  0  2  0  0  0  0  0  0
   -4.4360  -12.5120  -15.1780 N   0  0  0  0  0  2  0  0  0  0  0  0
   -5.2700  -15.4460  -15.3270 O   0  0  0  0  0  1  0  0  0  0  0  0
   -3.3900  -17.8100  -18.7210 O   0  0  0  0  0  1  0  0  0  0  0  0
  1  2  1  0
  2  8  1  0
  2 23  1  0
  3  4  1  0
  3  5  1  0
  3 21  1  0
  4  6  1  0
  4 25  1  0
  5 18  1  0
  5 26  1  0
  6  7  1  0
  8  9  1  0
  8 14  1  0
  9 10  1  0
 10 11  1  0
 11 12  1  0
 12 14  1  0
 13 15  1  0
 13 23  1  0
 15 16  1  0
 15 18  1  0
 16 24  1  0
 16 27  1  0
 17 23  1  0
 17 24  1  0
 17 28  1  0
 18 19  1  0
 19 20  1  0
 20 21  1  0
 20 22  1  0
 25 26  1  0
M  END
$$$$
