9cw7_B_H4B_502
     RDKit          3D

 17 18  0  0  0  0  0  0  0  0999 V2000
   76.9160   20.9840 -167.5350 C   0  0  0  0  0  3  0  0  0  0  0  0
   77.9400   22.1100 -167.5340 C   0  0  0  0  0  1  0  0  0  0  0  0
   74.7390   14.0540 -166.3560 C   0  0  0  0  0  3  0  0  0  0  0  0
   76.8070   15.0910 -165.9490 C   0  0  0  0  0  3  0  0  0  0  0  0
   76.3580   16.2280 -166.5970 C   0  0  0  0  0  3  0  0  0  0  0  0
   76.5110   18.5910 -166.9070 C   0  0  0  0  0  3  0  0  0  0  0  0
   75.4570   18.5290 -168.0190 C   0  0  0  0  0  2  0  0  0  0  0  0
   75.0830   16.2500 -167.1360 C   0  0  0  0  0  3  0  0  0  0  0  0
   77.5680   19.6840 -167.1070 C   0  0  0  0  0  3  0  0  0  0  0  0
   74.2930   15.1590 -167.0000 N   0  0  0  0  0  2  0  0  0  0  0  0
   73.9170   12.9750 -166.2510 N   0  0  0  0  0  1  0  0  0  0  0  0
   75.9940   14.0240 -165.8380 N   0  0  0  0  0  2  0  0  0  0  0  0
   77.1510   17.3060 -166.7310 N   0  0  0  0  0  2  0  0  0  0  0  0
   74.6120   17.3600 -167.7810 N   0  0  0  0  0  2  0  0  0  0  0  0
   75.8390   21.2730 -166.6410 O   0  0  0  0  0  1  0  0  0  0  0  0
   77.9610   15.0600 -165.4820 O   0  0  0  0  0  1  0  0  0  0  0  0
   78.5320   19.3220 -168.0970 O   0  0  0  0  0  1  0  0  0  0  0  0
  1  2  1  0
  1  9  1  0
  1 15  1  0
  3 10  1  0
  3 11  1  0
  3 12  1  0
  4  5  1  0
  4 12  1  0
  4 16  1  0
  5  8  1  0
  5 13  1  0
  6  7  1  0
  6  9  1  0
  6 13  1  0
  7 14  1  0
  8 10  1  0
  8 14  1  0
  9 17  1  0
M  END
$$$$
