9cwk_A_H4B_502
     RDKit          3D

 17 18  0  0  0  0  0  0  0  0999 V2000
  -31.2010  -25.1620 -174.4160 C   0  0  0  0  0  3  0  0  0  0  0  0
  -30.0490  -24.5000 -173.6610 C   0  0  0  0  0  1  0  0  0  0  0  0
  -34.7750  -28.0530 -180.0800 C   0  0  0  0  0  3  0  0  0  0  0  0
  -32.5200  -27.3450 -179.9260 C   0  0  0  0  0  3  0  0  0  0  0  0
  -32.7820  -26.7830 -178.6910 C   0  0  0  0  0  3  0  0  0  0  0  0
  -31.9900  -26.0360 -176.5810 C   0  0  0  0  0  3  0  0  0  0  0  0
  -33.3800  -25.5020 -176.2600 C   0  0  0  0  0  2  0  0  0  0  0  0
  -34.0710  -26.8650 -178.1750 C   0  0  0  0  0  3  0  0  0  0  0  0
  -30.8960  -25.2110 -175.9090 C   0  0  0  0  0  3  0  0  0  0  0  0
  -35.0500  -27.4900 -178.8780 N   0  0  0  0  0  2  0  0  0  0  0  0
  -35.7560  -28.6890 -180.7820 N   0  0  0  0  0  1  0  0  0  0  0  0
  -33.5190  -27.9760 -180.5840 N   0  0  0  0  0  2  0  0  0  0  0  0
  -31.8070  -26.1430 -178.0100 N   0  0  0  0  0  2  0  0  0  0  0  0
  -34.3680  -26.3120 -176.9720 N   0  0  0  0  0  2  0  0  0  0  0  0
  -31.4180  -26.5160 -173.9720 O   0  0  0  0  0  1  0  0  0  0  0  0
  -31.3650  -27.2810 -180.4140 O   0  0  0  0  0  1  0  0  0  0  0  0
  -30.7790  -23.8940 -176.4720 O   0  0  0  0  0  1  0  0  0  0  0  0
  1  2  1  0
  1  9  1  0
  1 15  1  0
  3 10  1  0
  3 11  1  0
  3 12  1  0
  4  5  1  0
  4 12  1  0
  4 16  1  0
  5  8  1  0
  5 13  1  0
  6  7  1  0
  6  9  1  0
  6 13  1  0
  7 14  1  0
  8 10  1  0
  8 14  1  0
  9 17  1  0
M  END
$$$$
