9cwk_C_H4B_502
     RDKit          3D

 17 18  0  0  0  0  0  0  0  0999 V2000
   -0.2640   16.5080 -207.6990 C   0  0  0  0  0  3  0  0  0  0  0  0
    0.9410   15.8910 -208.4030 C   0  0  0  0  0  1  0  0  0  0  0  0
   -3.8950   19.3670 -202.0000 C   0  0  0  0  0  3  0  0  0  0  0  0
   -1.6280   18.7140 -202.1970 C   0  0  0  0  0  3  0  0  0  0  0  0
   -1.8920   18.1890 -203.4510 C   0  0  0  0  0  3  0  0  0  0  0  0
   -1.0930   17.4710 -205.5870 C   0  0  0  0  0  3  0  0  0  0  0  0
   -2.4940   16.9740 -205.9250 C   0  0  0  0  0  2  0  0  0  0  0  0
   -3.1790   18.2620 -203.9550 C   0  0  0  0  0  3  0  0  0  0  0  0
   -0.0040   16.5930 -206.2010 C   0  0  0  0  0  3  0  0  0  0  0  0
   -4.1570   18.8460 -203.2220 N   0  0  0  0  0  2  0  0  0  0  0  0
   -4.8940   19.9650 -201.2820 N   0  0  0  0  0  1  0  0  0  0  0  0
   -2.6340   19.3010 -201.5080 N   0  0  0  0  0  2  0  0  0  0  0  0
   -0.9210   17.5870 -204.1620 N   0  0  0  0  0  2  0  0  0  0  0  0
   -3.4740   17.7510 -205.1750 N   0  0  0  0  0  2  0  0  0  0  0  0
   -0.5140   17.8350 -208.1940 O   0  0  0  0  0  1  0  0  0  0  0  0
   -0.4720   18.6580 -201.7120 O   0  0  0  0  0  1  0  0  0  0  0  0
    0.0350   15.2820 -205.6040 O   0  0  0  0  0  1  0  0  0  0  0  0
  1  2  1  0
  1  9  1  0
  1 15  1  0
  3 10  1  0
  3 11  1  0
  3 12  1  0
  4  5  1  0
  4 12  1  0
  4 16  1  0
  5  8  1  0
  5 13  1  0
  6  7  1  0
  6  9  1  0
  6 13  1  0
  7 14  1  0
  8 10  1  0
  8 14  1  0
  9 17  1  0
M  END
$$$$
