9mwn_A_H4B_502
     RDKit          3D

 17 18  0  0  0  0  0  0  0  0999 V2000
  -27.3720  -27.8760  -65.0010 C   0  0  0  0  0  3  0  0  0  0  0  0
  -26.1590  -27.1830  -64.3850 C   0  0  0  0  0  1  0  0  0  0  0  0
  -31.5440  -30.3850  -70.4710 C   0  0  0  0  0  3  0  0  0  0  0  0
  -29.2500  -29.8410  -70.4080 C   0  0  0  0  0  3  0  0  0  0  0  0
  -29.4350  -29.3060  -69.1440 C   0  0  0  0  0  3  0  0  0  0  0  0
  -28.4520  -28.7640  -67.0510 C   0  0  0  0  0  3  0  0  0  0  0  0
  -29.7800  -28.1910  -66.5650 C   0  0  0  0  0  2  0  0  0  0  0  0
  -30.6890  -29.3130  -68.5550 C   0  0  0  0  0  3  0  0  0  0  0  0
  -27.2350  -28.0210  -66.5030 C   0  0  0  0  0  3  0  0  0  0  0  0
  -31.7360  -29.8400  -69.2240 N   0  0  0  0  0  2  0  0  0  0  0  0
  -32.5920  -30.9230  -71.1500 N   0  0  0  0  0  1  0  0  0  0  0  0
  -30.3190  -30.3750  -71.0460 N   0  0  0  0  0  2  0  0  0  0  0  0
  -28.4010  -28.7720  -68.4880 N   0  0  0  0  0  2  0  0  0  0  0  0
  -30.8760  -28.7990  -67.3150 N   0  0  0  0  0  2  0  0  0  0  0  0
  -27.5300  -29.1790  -64.4460 O   0  0  0  0  0  1  0  0  0  0  0  0
  -28.1100  -29.8260  -70.9360 O   0  0  0  0  0  1  0  0  0  0  0  0
  -27.1380  -26.7190  -67.0760 O   0  0  0  0  0  1  0  0  0  0  0  0
  1  2  1  0
  1  9  1  0
  1 15  1  0
  3 10  1  0
  3 11  1  0
  3 12  1  0
  4  5  1  0
  4 12  1  0
  4 16  1  0
  5  8  1  0
  5 13  1  0
  6  7  1  0
  6  9  1  0
  6 13  1  0
  7 14  1  0
  8 10  1  0
  8 14  1  0
  9 17  1  0
M  END
$$$$
