9mwr_D_H4B_502
     RDKit          3D

 17 18  0  0  0  0  0  0  0  0999 V2000
  -12.6320   16.1180 -103.2720 C   0  0  0  0  0  3  0  0  0  0  0  0
  -13.6860   17.2140 -103.2090 C   0  0  0  0  0  1  0  0  0  0  0  0
  -10.2740    9.2370 -104.2870 C   0  0  0  0  0  3  0  0  0  0  0  0
  -12.3700   10.2180 -104.6740 C   0  0  0  0  0  3  0  0  0  0  0  0
  -11.9460   11.3670 -104.0240 C   0  0  0  0  0  3  0  0  0  0  0  0
  -12.1750   13.7200 -103.7750 C   0  0  0  0  0  3  0  0  0  0  0  0
  -11.1210   13.7250 -102.6700 C   0  0  0  0  0  2  0  0  0  0  0  0
  -10.6730   11.4290 -103.4960 C   0  0  0  0  0  3  0  0  0  0  0  0
  -13.2660   14.7760 -103.5780 C   0  0  0  0  0  3  0  0  0  0  0  0
   -9.8540   10.3610 -103.6370 N   0  0  0  0  0  2  0  0  0  0  0  0
   -9.4480    8.1710 -104.4290 N   0  0  0  0  0  1  0  0  0  0  0  0
  -11.5220    9.1750 -104.7970 N   0  0  0  0  0  2  0  0  0  0  0  0
  -12.7770   12.4130 -103.8940 N   0  0  0  0  0  2  0  0  0  0  0  0
  -10.2580   12.5560 -102.8520 N   0  0  0  0  0  2  0  0  0  0  0  0
  -11.6970   16.3830 -104.3190 O   0  0  0  0  0  1  0  0  0  0  0  0
  -13.5260   10.1550 -105.1390 O   0  0  0  0  0  1  0  0  0  0  0  0
  -14.1810   14.3910 -102.5440 O   0  0  0  0  0  1  0  0  0  0  0  0
  1  2  1  0
  1  9  1  0
  1 15  1  0
  3 10  1  0
  3 11  1  0
  3 12  1  0
  4  5  1  0
  4 12  1  0
  4 16  1  0
  5  8  1  0
  5 13  1  0
  6  7  1  0
  6  9  1  0
  6 13  1  0
  7 14  1  0
  8 10  1  0
  8 14  1  0
  9 17  1  0
M  END
$$$$
