9mwt_B_H4B_502
     RDKit          3D

 17 18  0  0  0  0  0  0  0  0999 V2000
  -40.1770  -27.8150 -168.1470 C   0  0  0  0  0  3  0  0  0  0  0  0
  -41.0880  -29.0440 -168.2440 C   0  0  0  0  0  1  0  0  0  0  0  0
  -38.4730  -20.7330 -167.2480 C   0  0  0  0  0  3  0  0  0  0  0  0
  -40.4850  -21.8530 -166.7960 C   0  0  0  0  0  3  0  0  0  0  0  0
  -39.9590  -22.9890 -167.3980 C   0  0  0  0  0  3  0  0  0  0  0  0
  -39.9670  -25.3760 -167.6300 C   0  0  0  0  0  3  0  0  0  0  0  0
  -38.8850  -25.2980 -168.6960 C   0  0  0  0  0  2  0  0  0  0  0  0
  -38.6820  -22.9630 -167.9200 C   0  0  0  0  0  3  0  0  0  0  0  0
  -40.9480  -26.5430 -167.8280 C   0  0  0  0  0  3  0  0  0  0  0  0
  -37.9600  -21.8340 -167.8250 N   0  0  0  0  0  2  0  0  0  0  0  0
  -37.6950  -19.6290 -167.1900 N   0  0  0  0  0  1  0  0  0  0  0  0
  -39.7270  -20.7340 -166.7400 N   0  0  0  0  0  2  0  0  0  0  0  0
  -40.6760  -24.1250 -167.4990 N   0  0  0  0  0  2  0  0  0  0  0  0
  -38.1290  -24.0590 -168.5060 N   0  0  0  0  0  2  0  0  0  0  0  0
  -39.1840  -27.9750 -167.1310 O   0  0  0  0  0  1  0  0  0  0  0  0
  -41.6510  -21.8510 -166.3230 O   0  0  0  0  0  1  0  0  0  0  0  0
  -41.8990  -26.2490 -168.8590 O   0  0  0  0  0  1  0  0  0  0  0  0
  1  2  1  0
  1  9  1  0
  1 15  1  0
  3 10  1  0
  3 11  1  0
  3 12  1  0
  4  5  1  0
  4 12  1  0
  4 16  1  0
  5  8  1  0
  5 13  1  0
  6  7  1  0
  6  9  1  0
  6 13  1  0
  7 14  1  0
  8 10  1  0
  8 14  1  0
  9 17  1  0
M  END
$$$$
