9mwv_A_H4B_502
     RDKit          3D

 17 18  0  0  0  0  0  0  0  0999 V2000
  -27.4380  -27.9520  -65.4050 C   0  0  0  0  0  3  0  0  0  0  0  0
  -26.3340  -27.1230  -64.7510 C   0  0  0  0  0  1  0  0  0  0  0  0
  -31.5500  -30.4590  -70.9150 C   0  0  0  0  0  3  0  0  0  0  0  0
  -29.2680  -29.8850  -70.8600 C   0  0  0  0  0  3  0  0  0  0  0  0
  -29.4320  -29.3980  -69.5770 C   0  0  0  0  0  3  0  0  0  0  0  0
  -28.4350  -28.8720  -67.4730 C   0  0  0  0  0  3  0  0  0  0  0  0
  -29.7810  -28.3600  -66.9590 C   0  0  0  0  0  2  0  0  0  0  0  0
  -30.6790  -29.4480  -68.9780 C   0  0  0  0  0  3  0  0  0  0  0  0
  -27.2590  -28.0770  -66.9100 C   0  0  0  0  0  3  0  0  0  0  0  0
  -31.7170  -29.9780  -69.6590 N   0  0  0  0  0  2  0  0  0  0  0  0
  -32.6110  -30.9890  -71.5820 N   0  0  0  0  0  1  0  0  0  0  0  0
  -30.3330  -30.4070  -71.5020 N   0  0  0  0  0  2  0  0  0  0  0  0
  -28.3890  -28.8730  -68.9170 N   0  0  0  0  0  2  0  0  0  0  0  0
  -30.8620  -28.9820  -67.7210 N   0  0  0  0  0  2  0  0  0  0  0  0
  -27.4910  -29.2760  -64.8500 O   0  0  0  0  0  1  0  0  0  0  0  0
  -28.1460  -29.8410  -71.4170 O   0  0  0  0  0  1  0  0  0  0  0  0
  -27.1710  -26.7800  -67.5250 O   0  0  0  0  0  1  0  0  0  0  0  0
  1  2  1  0
  1  9  1  0
  1 15  1  0
  3 10  1  0
  3 11  1  0
  3 12  1  0
  4  5  1  0
  4 12  1  0
  4 16  1  0
  5  8  1  0
  5 13  1  0
  6  7  1  0
  6  9  1  0
  6 13  1  0
  7 14  1  0
  8 10  1  0
  8 14  1  0
  9 17  1  0
M  END
$$$$
