9mwv_C_H4B_502
     RDKit          3D

 17 18  0  0  0  0  0  0  0  0999 V2000
    1.7500   15.9410  -97.9520 C   0  0  0  0  0  3  0  0  0  0  0  0
    2.9650   15.2580  -98.5760 C   0  0  0  0  0  1  0  0  0  0  0  0
   -2.3120   18.4260  -92.3170 C   0  0  0  0  0  3  0  0  0  0  0  0
    0.0070   18.0280  -92.4210 C   0  0  0  0  0  3  0  0  0  0  0  0
   -0.1500   17.5070  -93.7030 C   0  0  0  0  0  3  0  0  0  0  0  0
    0.7920   16.9640  -95.8640 C   0  0  0  0  0  3  0  0  0  0  0  0
   -0.5510   16.3950  -96.3160 C   0  0  0  0  0  2  0  0  0  0  0  0
   -1.4160   17.4570  -94.2570 C   0  0  0  0  0  3  0  0  0  0  0  0
    1.9560   16.1710  -96.4640 C   0  0  0  0  0  3  0  0  0  0  0  0
   -2.4720   17.9160  -93.5570 N   0  0  0  0  0  2  0  0  0  0  0  0
   -3.4030   18.8700  -91.6510 N   0  0  0  0  0  1  0  0  0  0  0  0
   -1.0820   18.4810  -91.7550 N   0  0  0  0  0  2  0  0  0  0  0  0
    0.8990   17.0400  -94.4140 N   0  0  0  0  0  2  0  0  0  0  0  0
   -1.6190   16.9640  -95.5020 N   0  0  0  0  0  2  0  0  0  0  0  0
    1.4860   17.2090  -98.5660 O   0  0  0  0  0  1  0  0  0  0  0  0
    1.1380   18.0890  -91.8820 O   0  0  0  0  0  1  0  0  0  0  0  0
    2.0610   14.8910  -95.8450 O   0  0  0  0  0  1  0  0  0  0  0  0
  1  2  1  0
  1  9  1  0
  1 15  1  0
  3 10  1  0
  3 11  1  0
  3 12  1  0
  4  5  1  0
  4 12  1  0
  4 16  1  0
  5  8  1  0
  5 13  1  0
  6  7  1  0
  6  9  1  0
  6 13  1  0
  7 14  1  0
  8 10  1  0
  8 14  1  0
  9 17  1  0
M  END
$$$$
