9mww_D_H4B_503
     RDKit          3D

 17 18  0  0  0  0  0  0  0  0999 V2000
  -12.6870   16.1910 -104.3170 C   0  0  0  0  0  3  0  0  0  0  0  0
  -13.6780   17.3480 -104.2770 C   0  0  0  0  0  1  0  0  0  0  0  0
  -10.5210    9.2250 -105.4190 C   0  0  0  0  0  3  0  0  0  0  0  0
  -12.5750   10.2740 -105.8630 C   0  0  0  0  0  3  0  0  0  0  0  0
  -12.1440   11.4150 -105.2210 C   0  0  0  0  0  3  0  0  0  0  0  0
  -12.3610   13.7850 -104.8530 C   0  0  0  0  0  3  0  0  0  0  0  0
  -11.2270   13.7380 -103.8270 C   0  0  0  0  0  2  0  0  0  0  0  0
  -10.8790   11.4310 -104.6710 C   0  0  0  0  0  3  0  0  0  0  0  0
  -13.4050   14.8660 -104.5430 C   0  0  0  0  0  3  0  0  0  0  0  0
  -10.0900   10.3360 -104.7690 N   0  0  0  0  0  2  0  0  0  0  0  0
   -9.7030    8.1500 -105.4970 N   0  0  0  0  0  1  0  0  0  0  0  0
  -11.7600    9.1970 -105.9600 N   0  0  0  0  0  2  0  0  0  0  0  0
  -12.9540   12.4900 -105.1280 N   0  0  0  0  0  2  0  0  0  0  0  0
  -10.4250   12.5350 -104.0290 N   0  0  0  0  0  2  0  0  0  0  0  0
  -11.8070   16.3750 -105.4350 O   0  0  0  0  0  1  0  0  0  0  0  0
  -13.7200   10.2590 -106.3390 O   0  0  0  0  0  1  0  0  0  0  0  0
  -14.2610   14.5400 -103.4460 O   0  0  0  0  0  1  0  0  0  0  0  0
  1  2  1  0
  1  9  1  0
  1 15  1  0
  3 10  1  0
  3 11  1  0
  3 12  1  0
  4  5  1  0
  4 12  1  0
  4 16  1  0
  5  8  1  0
  5 13  1  0
  6  7  1  0
  6  9  1  0
  6 13  1  0
  7 14  1  0
  8 10  1  0
  8 14  1  0
  9 17  1  0
M  END
$$$$
