9mz3_C_H4B_502
     RDKit          3D

 17 18  0  0  0  0  0  0  0  0999 V2000
    1.6300   15.7030  -97.5120 C   0  0  0  0  0  3  0  0  0  0  0  0
    2.8520   15.0550  -98.1520 C   0  0  0  0  0  1  0  0  0  0  0  0
   -2.3460   18.2440  -91.8660 C   0  0  0  0  0  3  0  0  0  0  0  0
   -0.0600   17.7300  -91.9620 C   0  0  0  0  0  3  0  0  0  0  0  0
   -0.2300   17.2050  -93.2430 C   0  0  0  0  0  3  0  0  0  0  0  0
    0.7010   16.7030  -95.3900 C   0  0  0  0  0  3  0  0  0  0  0  0
   -0.6520   16.1580  -95.8530 C   0  0  0  0  0  2  0  0  0  0  0  0
   -1.5030   17.2160  -93.8090 C   0  0  0  0  0  3  0  0  0  0  0  0
    1.8410   15.9060  -96.0240 C   0  0  0  0  0  3  0  0  0  0  0  0
   -2.5390   17.7320  -93.1100 N   0  0  0  0  0  2  0  0  0  0  0  0
   -3.3930   18.7530  -91.1790 N   0  0  0  0  0  1  0  0  0  0  0  0
   -1.1220   18.2390  -91.3110 N   0  0  0  0  0  2  0  0  0  0  0  0
    0.8100   16.6880  -93.9380 N   0  0  0  0  0  2  0  0  0  0  0  0
   -1.7270   16.7360  -95.0590 N   0  0  0  0  0  2  0  0  0  0  0  0
    1.3770   16.9660  -98.1190 O   0  0  0  0  0  1  0  0  0  0  0  0
    1.0640   17.7360  -91.4050 O   0  0  0  0  0  1  0  0  0  0  0  0
    1.9030   14.6170  -95.4200 O   0  0  0  0  0  1  0  0  0  0  0  0
  1  2  1  0
  1  9  1  0
  1 15  1  0
  3 10  1  0
  3 11  1  0
  3 12  1  0
  4  5  1  0
  4 12  1  0
  4 16  1  0
  5  8  1  0
  5 13  1  0
  6  7  1  0
  6  9  1  0
  6 13  1  0
  7 14  1  0
  8 10  1  0
  8 14  1  0
  9 17  1  0
M  END
$$$$
