9boh_B_FFO_502
     RDKit          3D

 34 36  0  0  0  0  0  0  0  0999 V2000
   22.6610   19.0860   21.7760 C   0  0  0  0  0  3  0  0  0  0  0  0
   21.4220   19.1240   20.9200 C   0  0  0  0  0  3  0  0  0  0  0  0
   21.4840   19.1890   19.5370 C   0  0  0  0  0  2  0  0  0  0  0  0
   20.3400   19.2430   18.7720 C   0  0  0  0  0  2  0  0  0  0  0  0
   19.0900   19.2470   19.3800 C   0  0  0  0  0  3  0  0  0  0  0  0
   19.0200   19.1960   20.7690 C   0  0  0  0  0  2  0  0  0  0  0  0
   20.1730   19.1400   21.5190 C   0  0  0  0  0  2  0  0  0  0  0  0
   20.4170   18.2190   13.2620 C   0  0  0  0  0  3  0  0  0  0  0  0
   19.3240   16.9900   15.0180 C   0  0  0  0  0  3  0  0  0  0  0  0
   18.3830   18.0190   15.0740 C   0  0  0  0  0  3  0  0  0  0  0  0
   16.6880   16.8330   16.3110 C   0  0  0  0  0  2  0  0  0  0  0  0
   16.8140   19.3300   16.4250 C   0  0  0  0  0  3  0  0  0  0  0  0
   16.5210   20.1920   15.2010 C   0  0  0  0  0  2  0  0  0  0  0  0
   18.5200   19.1170   14.1930 C   0  0  0  0  0  3  0  0  0  0  0  0
   17.8380   19.9870   17.3650 C   0  0  0  0  0  2  0  0  0  0  0  0
   23.4200   19.6390   24.0120 C   0  0  0  0  0  3  0  0  0  0  0  0
   24.1850   20.9590   23.9290 C   0  0  0  0  0  2  0  0  0  0  0  0
   24.5300   23.3340   23.7300 C   0  0  0  0  0  3  0  0  0  0  0  0
   23.4740   22.2660   23.9830 C   0  0  0  0  0  2  0  0  0  0  0  0
   22.9230   19.2780   25.4180 C   0  0  0  0  0  3  0  0  0  0  0  0
   22.4300   19.5170   22.9970 N   0  0  0  0  0  2  0  0  0  0  0  0
   19.5350   19.2020   13.3020 N   0  0  0  0  0  2  0  0  0  0  0  0
   17.9450   19.2990   18.6310 N   0  0  0  0  0  2  0  0  0  0  0  0
   20.3250   17.1410   14.0890 N   0  0  0  0  0  2  0  0  0  0  0  0
   17.2730   18.0120   15.9650 N   0  0  0  0  0  0  0  0  0  0  0  0
   17.6050   20.1330   14.2400 N   0  0  0  0  0  2  0  0  0  0  0  0
   21.4380   18.2320   12.4100 N   0  0  0  0  0  1  0  0  0  0  0  0
   23.7250   18.7410   21.3560 O   0  0  0  0  0  1  0  0  0  0  0  0
   21.7170   19.1870   25.5930 O   0  0  0  0  0  1  0  0  0  0  0  0
   23.7820   19.1040   26.2690 O   0  0  0  0  0  1  0  0  0  0  0  0
   19.3350   15.9850   15.7150 O   0  0  0  0  0  1  0  0  0  0  0  0
   15.7670   16.6650   17.0390 O   0  0  0  0  0  1  0  0  0  0  0  0
   25.4440   23.4230   24.5400 O   0  0  0  0  0  1  0  0  0  0  0  0
   24.4560   24.0580   22.7410 O   0  0  0  0  0  1  0  0  0  0  0  0
  1  2  1  0
  1 21  1  0
  1 28  1  0
  2  3  1  0
  2  7  1  0
  3  4  1  0
  4  5  1  0
  5  6  1  0
  5 23  1  0
  6  7  1  0
  8 22  1  0
  8 24  1  0
  8 27  1  0
  9 10  1  0
  9 24  1  0
  9 31  1  0
 10 14  1  0
 10 25  1  0
 11 25  1  0
 11 32  1  0
 12 13  1  0
 12 15  1  0
 12 25  1  0
 13 26  1  0
 14 22  1  0
 14 26  1  0
 15 23  1  0
 16 17  1  0
 16 20  1  0
 16 21  1  0
 17 19  1  0
 18 19  1  0
 18 33  1  0
 18 34  1  0
 20 29  1  0
 20 30  1  0
M  END
$$$$
