7s1q_A_84W_702
     RDKit          3D

 33 35  0  0  0  0  0  0  0  0999 V2000
  -32.4820  -51.0900   -8.9670 C   0  0  0  0  0  0  0  0  0  0  0  0
  -29.1190  -44.3190  -10.7110 C   0  0  0  0  0  3  0  0  0  0  0  0
  -28.2940  -43.2000  -10.9500 C   0  0  0  0  0  3  0  0  0  0  0  0
  -30.8710  -42.8360  -10.0740 C   0  0  0  0  0  3  0  0  0  0  0  0
  -32.3030  -42.6430   -9.5900 C   0  0  0  0  0  0  0  0  0  0  0  0
  -30.3750  -44.1380  -10.2840 C   0  0  0  0  0  3  0  0  0  0  0  0
  -31.2160  -45.2670  -10.0350 C   0  0  0  0  0  3  0  0  0  0  0  0
  -31.3100  -48.9710   -9.5130 C   0  0  0  0  0  3  0  0  0  0  0  0
  -31.6750  -47.7330   -9.9640 C   0  0  0  0  0  3  0  0  0  0  0  0
  -33.0320  -47.7290  -10.1290 C   0  0  0  0  0  3  0  0  0  0  0  0
  -30.7460  -46.5500  -10.2340 C   0  0  0  0  0  3  0  0  0  0  0  0
  -29.4460  -46.7430  -10.6780 C   0  0  0  0  0  3  0  0  0  0  0  0
  -28.6260  -45.6490  -10.9170 C   0  0  0  0  0  3  0  0  0  0  0  0
  -32.2470  -51.1450   -7.9080 H   0  0  0  0  0  0  0  0  0  0  0  0
  -31.7670  -51.6860   -9.5280 H   0  0  0  0  0  0  0  0  0  0  0  0
  -33.4840  -51.4730   -9.1360 H   0  0  0  0  0  0  0  0  0  0  0  0
  -28.1830  -41.1690  -10.9230 H   0  0  0  0  0  0  0  0  0  0  0  0
  -32.3320  -42.6990   -8.5070 H   0  0  0  0  0  0  0  0  0  0  0  0
  -32.9360  -43.4190  -10.0100 H   0  0  0  0  0  0  0  0  0  0  0  0
  -32.2090  -40.6250   -9.6090 H   0  0  0  0  0  0  0  0  0  0  0  0
  -32.7190  -41.2810  -11.0240 H   0  0  0  0  0  0  0  0  0  0  0  0
  -33.7330  -41.2220   -9.7340 H   0  0  0  0  0  0  0  0  0  0  0  0
  -32.2310  -45.1150   -9.6880 H   0  0  0  0  0  0  0  0  0  0  0  0
  -30.3020  -49.2940   -9.2820 H   0  0  0  0  0  0  0  0  0  0  0  0
  -33.6290  -46.8930  -10.4730 H   0  0  0  0  0  0  0  0  0  0  0  0
  -29.0720  -47.7460  -10.8390 H   0  0  0  0  0  0  0  0  0  0  0  0
  -27.6090  -45.8010  -11.2610 H   0  0  0  0  0  0  0  0  0  0  0  0
  -28.7700  -41.9610  -10.7520 N   0  0  0  0  0  0  0  0  0  0  0  0
  -30.0880  -41.7720  -10.3050 N   0  0  0  0  0  2  0  0  0  0  0  0
  -32.7770  -41.3430  -10.0230 N   0  0  0  0  0  4  0  0  0  0  0  0
  -32.4110  -49.7100   -9.4070 N   0  0  0  0  0  0  0  0  0  0  0  0
  -33.4920  -48.9300   -9.7930 N   0  0  0  0  0  2  0  0  0  0  0  0
  -26.9810  -43.3810  -11.3950 O   0  0  0  0  0  1  0  0  0  0  0  0
  1 14  1  0
  1 15  1  0
  1 16  1  0
  1 31  1  0
  2  3  1  0
  2  6  1  0
  2 13  1  0
  3 28  1  0
  3 33  1  0
  4  5  1  0
  4  6  1  0
  4 29  1  0
  5 18  1  0
  5 19  1  0
  5 30  1  0
  6  7  1  0
  7 11  1  0
  7 23  1  0
  8  9  1  0
  8 24  1  0
  8 31  1  0
  9 10  1  0
  9 11  1  0
 10 25  1  0
 10 32  1  0
 11 12  1  0
 12 13  1  0
 12 26  1  0
 13 27  1  0
 17 28  1  0
 20 30  1  0
 21 30  1  0
 22 30  1  0
 28 29  1  0
 31 32  1  0
M  END
$$$$
