4ikp_B_4IK_501
     RDKit          3D

 28 30  0  0  0  0  0  0  0  0999 V2000
  -15.7560   14.5410   32.8650 C   0  0  0  0  0  3  0  0  0  0  0  0
  -12.0660   10.7140   26.7090 C   0  0  0  0  0  3  0  0  0  0  0  0
  -12.6700    6.6020   25.2230 C   0  0  0  0  0  2  0  0  0  0  0  0
  -10.9360   11.7340   26.7650 C   0  0  0  0  0  3  0  0  0  0  0  0
  -11.3070   12.5460   28.0110 C   0  0  0  0  0  3  0  0  0  0  0  0
  -12.5260    8.9370   25.0220 C   0  0  0  0  0  3  0  0  0  0  0  0
  -12.8600   12.3810   28.1010 C   0  0  0  0  0  3  0  0  0  0  0  0
  -12.7870    8.8380   23.7180 C   0  0  0  0  0  3  0  0  0  0  0  0
  -13.6190   13.6690   27.7680 C   0  0  0  0  0  2  0  0  0  0  0  0
  -12.9980    7.6490   23.1500 C   0  0  0  0  0  3  0  0  0  0  0  0
  -12.5380   10.9290   24.2230 C   0  0  0  0  0  2  0  0  0  0  0  0
  -15.0820   13.3100   32.2680 C   0  0  0  0  0  3  0  0  0  0  0  0
  -14.0360   13.7350   31.1940 C   0  0  0  0  0  2  0  0  0  0  0  0
  -13.5560   14.7100   28.9050 C   0  0  0  0  0  3  0  0  0  0  0  0
  -13.7060   16.1140   28.2930 C   0  0  0  0  0  2  0  0  0  0  0  0
  -14.6480   14.4610   29.9750 C   0  0  0  0  0  2  0  0  0  0  0  0
  -16.1050   12.3860   31.7410 N   0  0  0  0  0  1  0  0  0  0  0  0
  -12.9460    6.5310   23.8570 N   0  0  0  0  0  2  0  0  0  0  0  0
  -12.4570    7.8470   25.7850 N   0  0  0  0  0  2  0  0  0  0  0  0
  -13.2660    7.6020   21.8380 N   0  0  0  0  0  1  0  0  0  0  0  0
  -12.7960   10.0710   23.2340 N   0  0  0  0  0  2  0  0  0  0  0  0
  -12.3760   10.2220   25.3380 N   0  0  0  0  0  0  0  0  0  0  0  0
  -14.7600   16.2060   27.2620 N   0  0  0  0  0  1  0  0  0  0  0  0
  -16.9090   14.8050   32.4580 O   0  0  0  0  0  1  0  0  0  0  0  0
   -9.6610   11.0640   26.9060 O   0  0  0  0  0  1  0  0  0  0  0  0
  -10.7710   11.9550   29.1980 O   0  0  0  0  0  1  0  0  0  0  0  0
  -13.2060   11.4880   27.0430 O   0  0  0  0  0  0  0  0  0  0  0  0
  -15.1050   15.2150   33.6970 O   0  0  0  0  0  1  0  0  0  0  0  0
  1 12  1  0
  1 24  1  0
  1 28  1  0
  2  4  1  0
  2 22  1  0
  2 27  1  0
  3 18  1  0
  3 19  1  0
  4  5  1  0
  4 25  1  0
  5  7  1  0
  5 26  1  0
  6  8  1  0
  6 19  1  0
  6 22  1  0
  7  9  1  0
  7 27  1  0
  8 10  1  0
  8 21  1  0
  9 14  1  0
 10 18  1  0
 10 20  1  0
 11 21  1  0
 11 22  1  0
 12 13  1  0
 12 17  1  0
 13 16  1  0
 14 15  1  0
 14 16  1  0
 15 23  1  0
M  END
$$$$
