5dx1_B_SFG_501
     RDKit          3D

 27 29  0  0  0  0  0  0  0  0999 V2000
   16.3100   34.4380   33.2230 C   0  0  0  0  0  3  0  0  0  0  0  0
   12.6980   37.9910   26.7800 C   0  0  0  0  0  3  0  0  0  0  0  0
   13.2180   42.0280   25.1110 C   0  0  0  0  0  2  0  0  0  0  0  0
   11.5570   37.0330   27.0070 C   0  0  0  0  0  3  0  0  0  0  0  0
   12.0060   36.2930   28.2520 C   0  0  0  0  0  3  0  0  0  0  0  0
   13.0250   39.7040   25.0610 C   0  0  0  0  0  3  0  0  0  0  0  0
   13.5260   36.3780   28.2210 C   0  0  0  0  0  3  0  0  0  0  0  0
   13.1800   39.7020   23.6330 C   0  0  0  0  0  3  0  0  0  0  0  0
   14.2910   35.0890   27.9240 C   0  0  0  0  0  2  0  0  0  0  0  0
   13.3440   40.9960   22.9880 C   0  0  0  0  0  3  0  0  0  0  0  0
   12.9390   37.6700   24.2980 C   0  0  0  0  0  2  0  0  0  0  0  0
   15.6550   35.6040   32.5250 C   0  0  0  0  0  3  0  0  0  0  0  0
   14.7410   35.1120   31.4040 C   0  0  0  0  0  2  0  0  0  0  0  0
   14.5110   34.1480   29.0920 C   0  0  0  0  0  3  0  0  0  0  0  0
   15.4730   34.6730   30.1530 C   0  0  0  0  0  2  0  0  0  0  0  0
   16.6620   36.5040   32.0050 N   0  0  0  0  0  1  0  0  0  0  0  0
   13.3650   42.0980   23.7670 N   0  0  0  0  0  2  0  0  0  0  0  0
   13.0550   40.8680   25.7510 N   0  0  0  0  0  2  0  0  0  0  0  0
   13.4750   41.0360   21.6570 N   0  0  0  0  0  1  0  0  0  0  0  0
   13.1210   38.4390   23.2180 N   0  0  0  0  0  2  0  0  0  0  0  0
   12.8680   38.4350   25.3890 N   0  0  0  0  0  0  0  0  0  0  0  0
   15.0980   32.9550   28.5140 N   0  0  0  0  0  1  0  0  0  0  0  0
   15.6540   33.8110   34.0870 O   0  0  0  0  0  1  0  0  0  0  0  0
   10.3010   37.7060   27.1180 O   0  0  0  0  0  1  0  0  0  0  0  0
   11.4790   36.8580   29.4660 O   0  0  0  0  0  1  0  0  0  0  0  0
   13.8470   37.2680   27.1500 O   0  0  0  0  0  0  0  0  0  0  0  0
   17.4980   34.1240   32.9420 O   0  0  0  0  0  1  0  0  0  0  0  0
  1 12  1  0
  1 23  1  0
  1 27  1  0
  2  4  1  0
  2 21  1  0
  2 26  1  0
  3 17  1  0
  3 18  1  0
  4  5  1  0
  4 24  1  0
  5  7  1  0
  5 25  1  0
  6  8  1  0
  6 18  1  0
  6 21  1  0
  7  9  1  0
  7 26  1  0
  8 10  1  0
  8 20  1  0
  9 14  1  0
 10 17  1  0
 10 19  1  0
 11 20  1  0
 11 21  1  0
 12 13  1  0
 12 16  1  0
 13 15  1  0
 14 15  1  0
 14 22  1  0
M  END
$$$$
