5is7_B_DSH_503
     RDKit          3D

 44 57  0  0  0  0  0  0  0  0999 V2000
   24.0490   23.4990  116.2740 C   0  0  0  0  0  0  0  0  0  0  0  0
   22.0920   26.3230  113.5570 C   0  0  0  0  0  3  0  0  0  0  0  0
   25.4540   23.3220  116.8470 C   0  0  0  0  0  0  0  0  0  0  0  0
   25.4670   21.8190  117.1300 C   0  0  0  0  0  0  0  0  0  0  0  0
   22.8930   25.6180  115.4860 C   0  0  0  0  0  3  0  0  0  0  0  0
   24.0310   21.5520  117.5780 C   0  0  0  0  0  0  0  0  0  0  0  0
   22.4990   26.7780  116.1340 C   0  0  0  0  0  3  0  0  0  0  0  0
   23.9110   21.6930  119.0830 C   0  0  0  0  0  5  0  0  0  0  0  0
   21.8440   27.7520  115.3580 C   0  0  0  0  0  3  0  0  0  0  0  0
   23.4320   25.5650  117.6050 C   0  0  0  0  0  3  0  0  0  0  0  0
   23.2080   19.1190  123.6570 C   0  0  0  0  0  6  0  0  0  0  0  0
   24.2000   19.5730  122.6130 C   0  0  0  0  0  6  0  0  0  0  0  0
   23.4920   20.3720  121.5390 C   0  0  0  0  0  0  0  0  0  0  0  0
   24.0120   23.2360  115.2180 H   0  0  0  0  0  0  0  0  0  0  0  0
   21.9070   26.1790  112.4930 H   0  0  0  0  0  0  0  0  0  0  0  0
   25.5990   23.8890  117.7660 H   0  0  0  0  0  0  0  0  0  0  0  0
   24.8490   18.8710  124.9100 H   0  0  0  0  0  0  0  0  0  0  0  0
   26.1820   21.5680  117.9110 H   0  0  0  0  0  0  0  0  0  0  0  0
   23.6160   20.6120  117.2170 H   0  0  0  0  0  0  0  0  0  0  0  0
   22.9450   22.1070  119.3680 H   0  0  0  0  0  0  0  0  0  0  0  0
   24.6380   22.3820  119.5110 H   0  0  0  0  0  0  0  0  0  0  0  0
   23.8340   25.2060  118.5510 H   0  0  0  0  0  0  0  0  0  0  0  0
   22.5270   18.3770  123.2420 H   0  0  0  0  0  2  0  0  0  0  0  0
   22.5670   19.9460  123.9590 H   0  0  0  0  0  2  0  0  0  0  0  0
   24.6950   18.7270  122.1390 H   0  0  0  0  0  0  0  0  0  0  0  0
   24.9880   20.1880  123.0440 H   0  0  0  0  0  2  0  0  0  0  0  0
   23.6040   21.4410  121.7150 Hg  0  0  0  0  0  7  0  0  0  0  0  0
   22.4190   20.1940  121.5890 Hg  0  0  0  0  0  7  0  0  0  0  0  0
   23.4200   18.8110  125.7080 H   0  0  0  0  0  0  0  0  0  0  0  0
   21.5060   29.1640  116.8220 H   0  0  0  0  0  0  0  0  0  0  0  0
   20.9300   29.5750  115.2310 H   0  0  0  0  0  0  0  0  0  0  0  0
   23.9000   17.5340  124.8050 H   0  0  0  0  0  0  0  0  0  0  0  0
   26.3540   23.0600  115.1230 H   0  0  0  0  0  0  0  0  0  0  0  0
   25.1140   21.3240  115.2720 H   0  0  0  0  0  0  0  0  0  0  0  0
   23.8880   18.5480  124.8470 N   0  0  0  0  0  4  0  0  0  0  0  0
   21.6530   27.4870  114.0470 N   0  0  0  0  0  2  0  0  0  0  0  0
   22.7180   25.3270  114.1910 N   0  0  0  0  0  2  0  0  0  0  0  0
   21.3960   28.9140  115.8440 N   0  0  0  0  0  0  0  0  0  0  0  0
   22.8490   26.7310  117.4760 N   0  0  0  0  0  2  0  0  0  0  0  0
   23.4910   24.8370  116.4450 N   0  0  0  0  0  0  0  0  0  0  0  0
   26.4350   23.6920  115.8850 O   0  0  0  0  0  0  0  0  0  0  0  0
   25.7800   21.0680  115.9630 O   0  0  0  0  0  0  0  0  0  0  0  0
   23.2220   22.5770  116.9590 O   0  0  0  0  0  0  0  0  0  0  0  0
   24.0540   20.0540  119.8420 S   0  0  0  0  0  4  0  0  0  0  0  0
  1  3  1  0
  1 14  1  0
  1 40  1  0
  1 43  1  0
  2 15  1  0
  2 36  1  0
  2 37  1  0
  3  4  1  0
  3 16  1  0
  3 41  1  0
  4  6  1  0
  4 18  1  0
  4 42  1  0
  5  7  1  0
  5 37  1  0
  5 40  1  0
  6  8  1  0
  6 19  1  0
  6 43  1  0
  7  9  1  0
  7 39  1  0
  8 20  1  0
  8 21  1  0
  8 27  1  0
  8 44  1  0
  9 36  1  0
  9 38  1  0
 10 22  1  0
 10 39  1  0
 10 40  1  0
 11 12  1  0
 11 23  1  0
 11 24  1  0
 11 27  1  0
 11 28  1  0
 11 35  1  0
 12 13  1  0
 12 25  1  0
 12 26  1  0
 12 27  1  0
 12 28  1  0
 13 27  1  0
 13 28  1  0
 13 44  1  0
 17 35  1  0
 23 28  1  0
 24 28  1  0
 26 27  1  0
 27 28  1  0
 27 44  1  0
 28 44  1  0
 29 35  1  0
 30 38  1  0
 31 38  1  0
 32 35  1  0
 33 41  1  0
 34 42  1  0
M  END
$$$$
