5is8_D_SAH_601
     RDKit          3D

 46 63  0  0  0  0  0  0  0  0999 V2000
   52.5540   13.8720  193.0790 C   0  0  0  0  0  3  0  0  0  0  0  0
   51.0960   22.4790  194.6780 C   0  0  0  0  0  0  0  0  0  0  0  0
   53.6320   24.8220  197.3500 C   0  0  0  0  0  3  0  0  0  0  0  0
   49.7800   22.3810  193.9060 C   0  0  0  0  0  0  0  0  0  0  0  0
   49.6590   20.8640  193.7330 C   0  0  0  0  0  0  0  0  0  0  0  0
   52.5870   24.3690  195.4670 C   0  0  0  0  0  3  0  0  0  0  0  0
   51.1180   20.4190  193.5770 C   0  0  0  0  0  6  0  0  0  0  0  0
   53.0680   25.5080  194.8560 C   0  0  0  0  0  3  0  0  0  0  0  0
   51.4830   20.2070  192.1160 C   0  0  0  0  0  5  0  0  0  0  0  0
   53.8950   26.3480  195.6300 C   0  0  0  0  0  3  0  0  0  0  0  0
   51.8680   24.5300  193.4110 C   0  0  0  0  0  3  0  0  0  0  0  0
   52.4780   15.3100  193.5910 C   0  0  0  0  0  6  0  0  0  0  0  0
   51.6140   16.1010  192.6110 C   0  0  0  0  0  6  0  0  0  0  0  0
   51.4400   17.5470  193.0150 C   0  0  0  0  0  0  0  0  0  0  0  0
   50.9900   22.2960  195.7460 H   0  0  0  0  0  0  0  0  0  0  0  0
   53.8940   24.5710  198.3770 H   0  0  0  0  0  0  0  0  0  0  0  0
   49.7520   22.9330  192.9670 H   0  0  0  0  0  0  0  0  0  0  0  0
   54.4530   15.5920  192.9280 H   0  0  0  0  0  0  0  0  0  0  0  0
   48.9810   20.5620  192.9360 H   0  0  0  0  0  0  0  0  0  0  0  0
   51.3660   19.5330  194.1590 H   0  0  0  0  0  3  0  0  0  0  0  0
   52.5400   20.4040  191.9400 H   0  0  0  0  0  0  0  0  0  0  0  0
   50.9600   20.9190  191.4800 H   0  0  0  0  0  0  0  0  0  0  0  0
   51.3430   24.2890  192.4890 H   0  0  0  0  0  0  0  0  0  0  0  0
   52.0110   15.2910  194.5750 H   0  0  0  0  0  0  0  0  0  0  0  0
   50.6400   15.6170  192.5630 H   0  0  0  0  0  2  0  0  0  0  0  0
   51.9990   16.0210  191.5960 H   0  0  0  0  0  0  0  0  0  0  0  0
   52.3090   17.9510  193.5320 Hg  0  0  0  0  0 10  0  0  0  0  0  0
   50.6050   17.6660  193.7040 Hg  0  0  0  0  0  8  0  0  0  0  0  0
   53.8720   16.8880  193.7640 H   0  0  0  0  0  2  0  0  0  0  0  0
   54.2090   15.4810  194.5630 H   0  0  0  0  0  0  0  0  0  0  0  0
   54.1950   27.8310  194.2520 H   0  0  0  0  0  0  0  0  0  0  0  0
   54.9910   28.0840  195.7820 H   0  0  0  0  0  0  0  0  0  0  0  0
   48.7670   22.6480  195.6020 H   0  0  0  0  0  0  0  0  0  0  0  0
   49.5130   20.5910  195.6900 H   0  0  0  0  0  0  0  0  0  0  0  0
   53.8540   15.8750  193.6980 N   0  0  0  0  0  5  0  0  0  0  0  0
   54.1620   25.9630  196.8980 N   0  0  0  0  0  2  0  0  0  0  0  0
   52.8340   23.9590  196.7190 N   0  0  0  0  0  2  0  0  0  0  0  0
   54.3990   27.5070  195.1930 N   0  0  0  0  0  0  0  0  0  0  0  0
   52.6140   25.6000  193.5470 N   0  0  0  0  0  2  0  0  0  0  0  0
   51.8030   23.7380  194.5260 N   0  0  0  0  0  0  0  0  0  0  0  0
   53.5870   13.5510  192.4450 O   0  0  0  0  0  1  0  0  0  0  0  0
   48.6920   22.9150  194.6490 O   0  0  0  0  0  0  0  0  0  0  0  0
   49.1090   20.2060  194.8690 O   0  0  0  0  0  0  0  0  0  0  0  0
   51.9260   21.4700  194.1500 O   0  0  0  0  0  0  0  0  0  0  0  0
   51.5630   13.1420  193.3020 O   0  0  0  0  0  1  0  0  0  0  0  0
   51.1340   18.5290  191.5290 S   0  0  0  0  0  4  0  0  0  0  0  0
  1 12  1  0
  1 41  1  0
  1 45  1  0
  2  4  1  0
  2 15  1  0
  2 40  1  0
  2 44  1  0
  3 16  1  0
  3 36  1  0
  3 37  1  0
  4  5  1  0
  4 17  1  0
  4 42  1  0
  5  7  1  0
  5 19  1  0
  5 43  1  0
  6  8  1  0
  6 37  1  0
  6 40  1  0
  7  9  1  0
  7 20  1  0
  7 27  1  0
  7 28  1  0
  7 44  1  0
  8 10  1  0
  8 39  1  0
  9 21  1  0
  9 22  1  0
  9 27  1  0
  9 46  1  0
 10 36  1  0
 10 38  1  0
 11 23  1  0
 11 39  1  0
 11 40  1  0
 12 13  1  0
 12 24  1  0
 12 27  1  0
 12 28  1  0
 12 35  1  0
 13 14  1  0
 13 25  1  0
 13 26  1  0
 13 27  1  0
 13 28  1  0
 14 27  1  0
 14 28  1  0
 14 46  1  0
 18 35  1  0
 20 27  1  0
 20 28  1  0
 25 28  1  0
 27 28  1  0
 27 29  1  0
 27 35  1  0
 27 46  1  0
 28 46  1  0
 29 35  1  0
 30 35  1  0
 31 38  1  0
 32 38  1  0
 33 42  1  0
 34 43  1  0
M  END
$$$$
