5is9_A_6D3_501
     RDKit          3D

 71 74  0  0  0  0  0  0  0  0999 V2000
   53.8890   34.6250  136.2360 C   0  0  0  0  0  3  0  0  0  0  0  0
   50.3960   37.8170  127.4810 C   0  0  0  0  0  3  0  0  0  0  0  0
   50.6230   39.8650  126.7670 C   0  0  0  0  0  3  0  0  0  0  0  0
   50.8080   41.0980  126.0900 C   0  0  0  0  0  3  0  0  0  0  0  0
   50.3950   39.9000  128.1580 C   0  0  0  0  0  3  0  0  0  0  0  0
   50.5380   42.2390  128.1100 C   0  0  0  0  0  3  0  0  0  0  0  0
   52.3090   33.2630  131.9860 C   0  0  0  0  0  0  0  0  0  0  0  0
   51.6290   32.3280  130.9690 C   0  0  0  0  0  0  0  0  0  0  0  0
   52.6120   31.4250  130.2170 C   0  0  0  0  0  0  0  0  0  0  0  0
   52.3050   29.1590  129.1450 C   0  0  0  0  0  3  0  0  0  0  0  0
   51.7350   27.8870  129.5430 C   0  0  0  0  0  3  0  0  0  0  0  0
   53.4090   35.7280  135.3310 C   0  0  0  0  0  0  0  0  0  0  0  0
   51.6690   26.5960  128.7010 C   0  0  0  0  0  0  0  0  0  0  0  0
   50.3750   26.3160  127.9740 C   0  0  0  0  0  0  0  0  0  0  0  0
   49.2070   26.7430  128.8780 C   0  0  0  0  0  3  0  0  0  0  0  0
   53.2090   35.1820  133.9150 C   0  0  0  0  0  0  0  0  0  0  0  0
   51.7170   34.8480  133.6150 C   0  0  0  0  0  0  0  0  0  0  0  0
   51.7120   35.4270  131.3090 C   0  0  0  0  0  0  0  0  0  0  0  0
   50.8570   36.6770  131.4400 C   0  0  0  0  0  0  0  0  0  0  0  0
   50.0220   38.1980  129.8910 C   0  0  0  0  0  0  0  0  0  0  0  0
   48.9650   37.1750  130.0590 C   0  0  0  0  0  0  0  0  0  0  0  0
   49.3940   36.4440  131.2910 C   0  0  0  0  0  0  0  0  0  0  0  0
   52.5740   36.0930  135.6670 H   0  0  0  0  0  0  0  0  0  0  0  0
   52.6570   35.6930  131.3680 H   0  0  0  0  0  0  0  0  0  0  0  0
   51.5520   35.0280  130.3960 H   0  0  0  0  0  0  0  0  0  0  0  0
   51.0340   37.1020  132.2870 H   0  0  0  0  0  0  0  0  0  0  0  0
   49.8170   38.9810  130.4450 H   0  0  0  0  0  0  0  0  0  0  0  0
   48.9440   36.5640  129.2820 H   0  0  0  0  0  0  0  0  0  0  0  0
   47.6190   38.0330  131.0710 H   0  0  0  0  0  0  0  0  0  0  0  0
   49.1970   35.4440  131.2050 H   0  0  0  0  0  0  0  0  0  0  0  0
   49.0390   37.8190  132.5860 H   0  0  0  0  0  0  0  0  0  0  0  0
   50.3350   36.8270  127.4920 H   0  0  0  0  0  0  0  0  0  0  0  0
   51.4730   41.8330  124.3350 H   0  0  0  0  0  0  0  0  0  0  0  0
   54.4850   37.0870  136.1340 H   0  0  0  0  0  0  0  0  0  0  0  0
   50.7620   40.4180  124.1930 H   0  0  0  0  0  0  0  0  0  0  0  0
   50.5060   43.0980  128.5970 H   0  0  0  0  0  0  0  0  0  0  0  0
   52.4810   32.7560  132.8370 H   0  0  0  0  0  0  0  0  0  0  0  0
   53.2000   33.5900  131.5990 H   0  0  0  0  0  0  0  0  0  0  0  0
   50.9890   31.7580  131.4540 H   0  0  0  0  0  0  0  0  0  0  0  0
   51.1440   32.8610  130.3270 H   0  0  0  0  0  0  0  0  0  0  0  0
   52.6340   31.7380  129.3080 H   0  0  0  0  0  0  0  0  0  0  0  0
   53.5510   31.4940  130.6130 H   0  0  0  0  0  0  0  0  0  0  0  0
   52.7260   29.3750  128.2500 H   0  0  0  0  0  0  0  0  0  0  0  0
   54.1360   37.3750  134.7230 H   0  0  0  0  0  0  0  0  0  0  0  0
   51.8720   25.8140  129.3040 H   0  0  0  0  0  0  0  0  0  0  0  0
   52.3790   26.6500  128.0220 H   0  0  0  0  0  0  0  0  0  0  0  0
   50.3100   25.3530  127.8260 H   0  0  0  0  0  0  0  0  0  0  0  0
   51.1260   26.8410  126.2600 H   0  0  0  0  0  0  0  0  0  0  0  0
   49.6450   26.6070  126.2070 H   0  0  0  0  0  0  0  0  0  0  0  0
   53.5220   35.8480  133.2640 H   0  0  0  0  0  0  0  0  0  0  0  0
   53.7500   34.3590  133.8050 H   0  0  0  0  0  0  0  0  0  0  0  0
   51.1950   35.6300  133.7760 H   0  0  0  0  0  0  0  0  0  0  0  0
   51.4350   34.1680  134.2120 H   0  0  0  0  0  0  0  0  0  0  0  0
   54.3870   36.7290  135.2980 N   0  0  0  0  0  0  0  0  0  0  0  0
   51.5680   29.3250  131.1640 N   0  0  0  0  0  2  0  0  0  0  0  0
   50.3220   26.9640  126.7030 N   0  0  0  0  0  0  0  0  0  0  0  0
   51.4720   34.4170  132.2840 N   0  0  0  0  0  0  0  0  0  0  0  0
   50.2490   38.6030  128.5520 N   0  0  0  0  0  0  0  0  0  0  0  0
   50.6160   38.5600  126.3850 N   0  0  0  0  0  2  0  0  0  0  0  0
   51.0410   41.1180  124.7170 N   0  0  0  0  0  0  0  0  0  0  0  0
   50.3630   41.1050  128.7850 N   0  0  0  0  0  2  0  0  0  0  0  0
   50.7560   42.2470  126.8090 N   0  0  0  0  0  2  0  0  0  0  0  0
   52.1670   30.0070  130.1940 N   0  0  0  0  0  0  0  0  0  0  0  0
   51.3070   28.0730  130.8190 N   0  0  0  0  0  2  0  0  0  0  0  0
   55.1110   34.3450  136.2210 O   0  0  0  0  0  1  0  0  0  0  0  0
   51.2240   37.5730  130.3560 O   0  0  0  0  0  0  0  0  0  0  0  0
   47.7050   37.7950  130.2420 O   0  0  0  0  0  0  0  0  0  0  0  0
   48.7180   36.9980  132.4160 O   0  0  0  0  0  0  0  0  0  0  0  0
   53.0520   34.0350  136.9680 O   0  0  0  0  0  1  0  0  0  0  0  0
   48.2370   27.4000  128.3760 O   0  0  0  0  0  1  0  0  0  0  0  0
   49.2670   26.3980  130.1270 O   0  0  0  0  0  1  0  0  0  0  0  0
  1 12  1  0
  1 65  1  0
  1 69  1  0
  2 32  1  0
  2 58  1  0
  2 59  1  0
  3  4  1  0
  3  5  1  0
  3 59  1  0
  4 60  1  0
  4 62  1  0
  5 58  1  0
  5 61  1  0
  6 36  1  0
  6 61  1  0
  6 62  1  0
  7  8  1  0
  7 37  1  0
  7 38  1  0
  7 57  1  0
  8  9  1  0
  8 39  1  0
  8 40  1  0
  9 41  1  0
  9 42  1  0
  9 63  1  0
 10 11  1  0
 10 43  1  0
 10 63  1  0
 11 13  1  0
 11 64  1  0
 12 16  1  0
 12 23  1  0
 12 54  1  0
 13 14  1  0
 13 45  1  0
 13 46  1  0
 14 15  1  0
 14 47  1  0
 14 56  1  0
 15 70  1  0
 15 71  1  0
 16 17  1  0
 16 50  1  0
 16 51  1  0
 17 52  1  0
 17 53  1  0
 17 57  1  0
 18 19  1  0
 18 24  1  0
 18 25  1  0
 18 57  1  0
 19 22  1  0
 19 26  1  0
 19 66  1  0
 20 21  1  0
 20 27  1  0
 20 58  1  0
 20 66  1  0
 21 22  1  0
 21 28  1  0
 21 67  1  0
 22 30  1  0
 22 68  1  0
 29 67  1  0
 31 68  1  0
 33 60  1  0
 34 54  1  0
 35 60  1  0
 44 54  1  0
 48 56  1  0
 49 56  1  0
 55 63  1  0
 55 64  1  0
M  END
$$$$
