5isc_D_6D0_501
     RDKit          3D

 54 56  0  0  0  0  0  0  0  0999 V2000
   53.0820   20.2790  190.1980 Br  0  0  0  0  0  0  0  0  0  0  0  0
   54.4330   15.7800  196.9940 C   0  0  0  0  0  3  0  0  0  0  0  0
   53.8130   26.3070  196.8060 C   0  0  0  0  0  3  0  0  0  0  0  0
   54.7970   27.5060  198.3340 C   0  0  0  0  0  3  0  0  0  0  0  0
   55.4710   28.4330  199.1840 C   0  0  0  0  0  3  0  0  0  0  0  0
   54.3750   26.3020  198.9210 C   0  0  0  0  0  3  0  0  0  0  0  0
   55.2620   26.9790  200.9980 C   0  0  0  0  0  3  0  0  0  0  0  0
   54.1040   20.0950  194.2010 C   0  0  0  0  0  0  0  0  0  0  0  0
   53.5640   20.8510  193.0120 C   0  0  0  0  0  3  0  0  0  0  0  0
   54.2830   20.7320  191.6630 C   0  0  0  0  0  0  0  0  0  0  0  0
   54.6700   17.2770  197.1410 C   0  0  0  0  0  0  0  0  0  0  0  0
   53.6270   17.9800  196.2820 C   0  0  0  0  0  0  0  0  0  0  0  0
   53.6400   19.4600  196.5580 C   0  0  0  0  0  0  0  0  0  0  0  0
   53.7060   21.8480  195.7930 C   0  0  0  0  0  0  0  0  0  0  0  0
   53.3570   22.2190  197.1360 C   0  0  0  0  0  0  0  0  0  0  0  0
   53.2090   24.2980  198.1410 C   0  0  0  0  0  0  0  0  0  0  0  0
   51.8730   24.0430  197.4920 C   0  0  0  0  0  0  0  0  0  0  0  0
   51.8760   22.6070  197.2040 C   0  0  0  0  0  0  0  0  0  0  0  0
   54.5710   17.5260  198.0300 H   0  0  0  0  0  0  0  0  0  0  0  0
   53.2360   22.4440  195.1930 H   0  0  0  0  0  0  0  0  0  0  0  0
   54.6980   21.9900  195.6690 H   0  0  0  0  0  0  0  0  0  0  0  0
   53.5280   21.4910  197.7310 H   0  0  0  0  0  0  0  0  0  0  0  0
   53.1410   24.1000  199.1490 H   0  0  0  0  0  0  0  0  0  0  0  0
   51.7970   24.5190  196.7270 H   0  0  0  0  0  0  0  0  0  0  0  0
   50.9460   23.9410  199.0990 H   0  0  0  0  0  0  0  0  0  0  0  0
   51.4280   22.4250  196.3230 H   0  0  0  0  0  0  0  0  0  0  0  0
   51.6430   22.0720  199.0600 H   0  0  0  0  0  0  0  0  0  0  0  0
   53.4400   26.0210  195.9430 H   0  0  0  0  0  0  0  0  0  0  0  0
   56.8100   29.9780  198.9290 H   0  0  0  0  0  0  0  0  0  0  0  0
   55.9870   17.5700  195.7520 H   0  0  0  0  0  0  0  0  0  0  0  0
   55.4350   30.1300  198.1560 H   0  0  0  0  0  0  0  0  0  0  0  0
   55.4340   26.7810  201.9970 H   0  0  0  0  0  0  0  0  0  0  0  0
   54.0680   19.1690  194.0280 H   0  0  0  0  0  0  0  0  0  0  0  0
   54.9980   20.3500  194.3400 H   0  0  0  0  0  0  0  0  0  0  0  0
   54.9580   20.0120  191.7330 H   0  0  0  0  0  0  0  0  0  0  0  0
   54.7840   21.6580  191.4450 H   0  0  0  0  0  0  0  0  0  0  0  0
   56.5990   17.0600  197.0560 H   0  0  0  0  0  0  0  0  0  0  0  0
   53.8420   17.8280  195.3210 H   0  0  0  0  0  0  0  0  0  0  0  0
   52.6370   17.5760  196.4980 H   0  0  0  0  0  0  0  0  0  0  0  0
   54.4960   19.6730  196.8860 H   0  0  0  0  0  0  0  0  0  0  0  0
   52.9820   19.6520  197.2760 H   0  0  0  0  0  0  0  0  0  0  0  0
   55.9570   17.6340  196.6820 N   0  0  0  0  0  0  0  0  0  0  0  0
   53.3560   20.3890  195.3900 N   0  0  0  0  0  0  0  0  0  0  0  0
   53.7580   25.5940  197.9490 N   0  0  0  0  0  0  0  0  0  0  0  0
   54.4260   27.4600  197.0210 N   0  0  0  0  0  2  0  0  0  0  0  0
   55.9360   29.6590  198.6850 N   0  0  0  0  0  0  0  0  0  0  0  0
   54.6230   26.0670  200.2550 N   0  0  0  0  0  2  0  0  0  0  0  0
   55.6770   28.1210  200.4980 N   0  0  0  0  0  2  0  0  0  0  0  0
   53.3840   15.3150  197.4470 O   0  0  0  0  0  1  0  0  0  0  0  0
   54.1300   23.3710  197.5270 O   0  0  0  0  0  0  0  0  0  0  0  0
   50.8220   24.3420  198.3580 O   0  0  0  0  0  0  0  0  0  0  0  0
   51.2460   21.8630  198.2390 O   0  0  0  0  0  0  0  0  0  0  0  0
   52.5400   21.5570  193.1250 O   0  0  0  0  0  1  0  0  0  0  0  0
   55.3540   15.0490  196.3730 O   0  0  0  0  0  1  0  0  0  0  0  0
  1 10  1  0
  2 11  1  0
  2 49  1  0
  2 54  1  0
  3 28  1  0
  3 44  1  0
  3 45  1  0
  4  5  1  0
  4  6  1  0
  4 45  1  0
  5 46  1  0
  5 48  1  0
  6 44  1  0
  6 47  1  0
  7 32  1  0
  7 47  1  0
  7 48  1  0
  8  9  1  0
  8 33  1  0
  8 34  1  0
  8 43  1  0
  9 10  1  0
  9 53  1  0
 10 35  1  0
 10 36  1  0
 11 12  1  0
 11 19  1  0
 11 42  1  0
 12 13  1  0
 12 38  1  0
 12 39  1  0
 13 40  1  0
 13 41  1  0
 13 43  1  0
 14 15  1  0
 14 20  1  0
 14 21  1  0
 14 43  1  0
 15 18  1  0
 15 22  1  0
 15 50  1  0
 16 17  1  0
 16 23  1  0
 16 44  1  0
 16 50  1  0
 17 18  1  0
 17 24  1  0
 17 51  1  0
 18 26  1  0
 18 52  1  0
 25 51  1  0
 27 52  1  0
 29 46  1  0
 30 42  1  0
 31 46  1  0
 37 42  1  0
M  END
$$$$
