5isd_A_SAO_507
     RDKit          3D

 46 63  0  0  0  0  0  0  0  0999 V2000
   53.4840   34.8670  135.5830 C   0  0  0  0  0  0  0  0  0  0  0  0
   49.6390   38.2810  129.2070 C   0  0  0  0  0  0  0  0  0  0  0  0
   50.2650   42.1910  127.3530 C   0  0  0  0  0  3  0  0  0  0  0  0
   48.4720   37.3190  129.3920 C   0  0  0  0  0  0  0  0  0  0  0  0
   48.8730   36.6210  130.6990 C   0  0  0  0  0  5  0  0  0  0  0  0
   50.0420   39.9980  127.3870 C   0  0  0  0  0  3  0  0  0  0  0  0
   50.4040   36.6020  130.6290 C   0  0  0  0  0  5  0  0  0  0  0  0
   50.2500   39.9040  126.0210 C   0  0  0  0  0  3  0  0  0  0  0  0
   50.9020   35.2330  130.2060 C   0  0  0  0  0  5  0  0  0  0  0  0
   50.4670   41.1020  125.3210 C   0  0  0  0  0  3  0  0  0  0  0  0
   49.9800   37.9180  126.7220 C   0  0  0  0  0  3  0  0  0  0  0  0
   53.1120   35.9950  134.6180 C   0  0  0  0  0  6  0  0  0  0  0  0
   52.7850   35.4230  133.2370 C   0  0  0  0  0  6  0  0  0  0  0  0
   51.3260   35.0200  133.0820 C   0  0  0  0  0  0  0  0  0  0  0  0
   49.5600   39.1810  129.8160 H   0  0  0  0  0  0  0  0  0  0  0  0
   50.2850   43.1530  127.8640 H   0  0  0  0  0  0  0  0  0  0  0  0
   48.3200   36.6280  128.5650 H   0  0  0  0  0  0  0  0  0  0  0  0
   55.1430   36.4940  134.4420 H   0  0  0  0  0  0  0  0  0  0  0  0
   48.4080   35.6440  130.8180 H   0  0  0  0  0  0  0  0  0  0  0  0
   50.8950   36.9260  131.5450 H   0  0  0  0  0  2  0  0  0  0  0  0
   51.8150   35.3270  129.6200 H   0  0  0  0  0  0  0  0  0  0  0  0
   50.1920   34.7710  129.5210 H   0  0  0  0  0  0  0  0  0  0  0  0
   49.8880   36.8330  126.7600 H   0  0  0  0  0  0  0  0  0  0  0  0
   52.2380   36.5010  135.0250 H   0  0  0  0  0  0  0  0  0  0  0  0
   53.4200   34.5510  133.0830 H   0  0  0  0  0  0  0  0  0  0  0  0
   53.0870   36.1100  132.4480 H   0  0  0  0  0  2  0  0  0  0  0  0
   50.9520   34.4150  133.9060 Hg  0  0  0  0  0  7  0  0  0  0  0  0
   50.6650   35.8830  133.0140 Hg  0  0  0  0  0 11  0  0  0  0  0  0
   54.2890   37.6010  135.3130 H   0  0  0  0  0  0  0  0  0  0  0  0
   54.0500   37.4800  133.6820 H   0  0  0  0  0  0  0  0  0  0  0  0
   50.6510   40.3180  123.4420 H   0  0  0  0  0  0  0  0  0  0  0  0
   50.8120   42.0510  123.5280 H   0  0  0  0  0  0  0  0  0  0  0  0
   47.2570   38.6760  130.2110 H   0  0  0  0  0  0  0  0  0  0  0  0
   48.3320   38.2590  131.6680 H   0  0  0  0  0  0  0  0  0  0  0  0
   54.2440   36.9560  134.5300 N   0  0  0  0  0  4  0  0  0  0  0  0
   50.4700   42.2510  126.0330 N   0  0  0  0  0  2  0  0  0  0  0  0
   50.0390   41.1210  128.1190 N   0  0  0  0  0  2  0  0  0  0  0  0
   50.6580   41.1660  124.0000 N   0  0  0  0  0  0  0  0  0  0  0  0
   50.2110   38.5770  125.6130 N   0  0  0  0  0  2  0  0  0  0  0  0
   49.8630   38.7130  127.8340 N   0  0  0  0  0  0  0  0  0  0  0  0
   54.6570   34.4380  135.5370 O   0  0  0  0  0  1  0  0  0  0  0  0
   47.2270   38.0060  129.4790 O   0  0  0  0  0  0  0  0  0  0  0  0
   48.4170   37.2900  131.8670 O   0  0  0  0  0  3  0  0  0  0  0  0
   50.7820   37.5760  129.6330 O   0  0  0  0  0  0  0  0  0  0  0  0
   52.5820   34.4490  136.3450 O   0  0  0  0  0  0  0  0  0  0  0  0
   51.2570   34.0530  131.5410 S   0  0  0  0  0  4  0  0  0  0  0  0
  1 12  1  0
  1 27  1  0
  1 41  1  0
  1 45  1  0
  2  4  1  0
  2 15  1  0
  2 40  1  0
  2 44  1  0
  3 16  1  0
  3 36  1  0
  3 37  1  0
  4  5  1  0
  4 17  1  0
  4 42  1  0
  5  7  1  0
  5 19  1  0
  5 28  1  0
  5 43  1  0
  6  8  1  0
  6 37  1  0
  6 40  1  0
  7  9  1  0
  7 20  1  0
  7 28  1  0
  7 44  1  0
  8 10  1  0
  8 39  1  0
  9 21  1  0
  9 22  1  0
  9 28  1  0
  9 46  1  0
 10 36  1  0
 10 38  1  0
 11 23  1  0
 11 39  1  0
 11 40  1  0
 12 13  1  0
 12 24  1  0
 12 27  1  0
 12 28  1  0
 12 35  1  0
 13 14  1  0
 13 25  1  0
 13 26  1  0
 13 27  1  0
 13 28  1  0
 14 27  1  0
 14 28  1  0
 14 46  1  0
 18 35  1  0
 20 28  1  0
 26 28  1  0
 27 28  1  0
 27 45  1  0
 27 46  1  0
 28 43  1  0
 28 46  1  0
 29 35  1  0
 30 35  1  0
 31 38  1  0
 32 38  1  0
 33 42  1  0
 34 43  1  0
M  END
$$$$
