5isd_C_SAO_504
     RDKit          3D

 46 61  0  0  0  0  0  0  0  0999 V2000
   23.4710   36.2790  173.1340 C   0  0  0  0  0  0  0  0  0  0  0  0
   27.1990   39.3810  179.7500 C   0  0  0  0  0  0  0  0  0  0  0  0
   26.7640   43.3580  181.5080 C   0  0  0  0  0  3  0  0  0  0  0  0
   28.2150   38.2590  179.5830 C   0  0  0  0  0  0  0  0  0  0  0  0
   27.7370   37.6200  178.2740 C   0  0  0  0  0  0  0  0  0  0  0  0
   26.8760   41.1610  181.5270 C   0  0  0  0  0  3  0  0  0  0  0  0
   26.2210   37.8460  178.2990 C   0  0  0  0  0  0  0  0  0  0  0  0
   26.6160   41.0980  182.8850 C   0  0  0  0  0  3  0  0  0  0  0  0
   25.4090   36.6050  178.6200 C   0  0  0  0  0  5  0  0  0  0  0  0
   26.4080   42.3270  183.5480 C   0  0  0  0  0  3  0  0  0  0  0  0
   26.8560   39.0950  182.2460 C   0  0  0  0  0  3  0  0  0  0  0  0
   24.0020   37.4770  173.9220 C   0  0  0  0  0  6  0  0  0  0  0  0
   24.8410   37.0340  175.1240 C   0  0  0  0  0  6  0  0  0  0  0  0
   24.0990   36.1480  176.1180 C   0  0  0  0  0  0  0  0  0  0  0  0
   27.4170   40.2560  179.1400 H   0  0  0  0  0  0  0  0  0  0  0  0
   26.8270   44.3080  180.9790 H   0  0  0  0  0  0  0  0  0  0  0  0
   28.2830   37.5620  180.4170 H   0  0  0  0  0  0  0  0  0  0  0  0
   23.0760   38.8860  175.1740 H   0  0  0  0  0  0  0  0  0  0  0  0
   28.0570   36.5860  178.1490 H   0  0  0  0  0  0  0  0  0  0  0  0
   25.8470   38.2970  177.3810 H   0  0  0  0  0  0  0  0  0  0  0  0
   24.3790   36.8460  178.8780 H   0  0  0  0  0  2  0  0  0  0  0  0
   25.8060   36.0880  179.4920 H   0  0  0  0  0  0  0  0  0  0  0  0
   26.9280   38.0080  182.2380 H   0  0  0  0  0  0  0  0  0  0  0  0
   24.6310   38.0480  173.2400 H   0  0  0  0  0  0  0  0  0  0  0  0
   25.1830   37.9340  175.6320 H   0  0  0  0  0  2  0  0  0  0  0  0
   25.7630   36.5570  174.7950 H   0  0  0  0  0  0  0  0  0  0  0  0
   23.5560   35.3280  175.6500 Hg  0  0  0  0  0  7  0  0  0  0  0  0
   23.3680   36.7040  176.7020 Hg  0  0  0  0  0  9  0  0  0  0  0  0
   22.5320   38.9600  173.6200 H   0  0  0  0  0  0  0  0  0  0  0  0
   22.1290   37.6680  174.5690 H   0  0  0  0  0  0  0  0  0  0  0  0
   26.0300   41.5950  185.4190 H   0  0  0  0  0  0  0  0  0  0  0  0
   25.9730   43.3320  185.2900 H   0  0  0  0  0  0  0  0  0  0  0  0
   29.5660   39.4580  178.7340 H   0  0  0  0  0  0  0  0  0  0  0  0
   28.2830   39.2370  177.2730 H   0  0  0  0  0  0  0  0  0  0  0  0
   22.8620   38.3350  174.3480 N   0  0  0  0  0  5  0  0  0  0  0  0
   26.4930   43.4570  182.8140 N   0  0  0  0  0  2  0  0  0  0  0  0
   26.9660   42.2600  180.7740 N   0  0  0  0  0  2  0  0  0  0  0  0
   26.1150   42.4290  184.8470 N   0  0  0  0  0  0  0  0  0  0  0  0
   26.6080   39.7880  183.3340 N   0  0  0  0  0  2  0  0  0  0  0  0
   27.0170   39.8520  181.1200 N   0  0  0  0  0  0  0  0  0  0  0  0
   24.2390   35.7680  172.2870 O   0  0  0  0  0  1  0  0  0  0  0  0
   29.5310   38.7910  179.4680 O   0  0  0  0  0  0  0  0  0  0  0  0
   28.3190   38.2530  177.1430 O   0  0  0  0  0  0  0  0  0  0  0  0
   25.9710   38.8490  179.3070 O   0  0  0  0  0  0  0  0  0  0  0  0
   22.3100   35.8890  173.3920 O   0  0  0  0  0  0  0  0  0  0  0  0
   25.3960   35.4740  177.2040 S   0  0  0  0  0  4  0  0  0  0  0  0
  1 12  1  0
  1 27  1  0
  1 41  1  0
  1 45  1  0
  2  4  1  0
  2 15  1  0
  2 40  1  0
  2 44  1  0
  3 16  1  0
  3 36  1  0
  3 37  1  0
  4  5  1  0
  4 17  1  0
  4 42  1  0
  5  7  1  0
  5 19  1  0
  5 43  1  0
  6  8  1  0
  6 37  1  0
  6 40  1  0
  7  9  1  0
  7 20  1  0
  7 44  1  0
  8 10  1  0
  8 39  1  0
  9 21  1  0
  9 22  1  0
  9 28  1  0
  9 46  1  0
 10 36  1  0
 10 38  1  0
 11 23  1  0
 11 39  1  0
 11 40  1  0
 12 13  1  0
 12 24  1  0
 12 27  1  0
 12 28  1  0
 12 35  1  0
 13 14  1  0
 13 25  1  0
 13 26  1  0
 13 27  1  0
 13 28  1  0
 14 27  1  0
 14 28  1  0
 14 46  1  0
 18 35  1  0
 21 28  1  0
 25 28  1  0
 27 28  1  0
 27 45  1  0
 27 46  1  0
 28 35  1  0
 28 46  1  0
 29 35  1  0
 30 35  1  0
 31 38  1  0
 32 38  1  0
 33 42  1  0
 34 43  1  0
M  END
$$$$
