5ise_B_PE8_502
     RDKit          3D

 59 58  0  0  0  0  0  0  0  0999 V2000
   16.2470   35.5930  107.2000 C   0  0  0  0  0  0  0  0  0  0  0  0
   17.6660   36.0900  106.9240 C   0  0  0  0  0  0  0  0  0  0  0  0
   19.1850   37.6850  107.9190 C   0  0  0  0  0  0  0  0  0  0  0  0
   20.5300   37.3280  108.5770 C   0  0  0  0  0  0  0  0  0  0  0  0
   22.9460   37.6790  108.1490 C   0  0  0  0  0  0  0  0  0  0  0  0
   23.0960   36.3550  107.3810 C   0  0  0  0  0  0  0  0  0  0  0  0
    8.0740   32.0290  106.5460 C   0  0  0  0  0  0  0  0  0  0  0  0
   24.6700   35.0050  106.2220 C   0  0  0  0  0  0  0  0  0  0  0  0
   23.8810   34.4210  105.0370 C   0  0  0  0  0  0  0  0  0  0  0  0
   24.2920   32.1180  105.7110 C   0  0  0  0  0  0  0  0  0  0  0  0
   23.7450   31.3390  106.9200 C   0  0  0  0  0  0  0  0  0  0  0  0
    9.5660   32.1670  106.2570 C   0  0  0  0  0  0  0  0  0  0  0  0
   11.4030   33.4120  107.1420 C   0  0  0  0  0  0  0  0  0  0  0  0
   11.9600   34.4520  106.1740 C   0  0  0  0  0  0  0  0  0  0  0  0
   13.9100   35.2020  105.1540 C   0  0  0  0  0  0  0  0  0  0  0  0
   15.4250   35.0140  105.0590 C   0  0  0  0  0  0  0  0  0  0  0  0
   15.6210   36.3270  107.0980 H   0  0  0  0  0  0  0  0  0  0  0  0
   16.1950   35.2450  108.1040 H   0  0  0  0  0  0  0  0  0  0  0  0
   18.2170   35.3450  106.6380 H   0  0  0  0  0  0  0  0  0  0  0  0
   17.6410   36.7600  106.2230 H   0  0  0  0  0  0  0  0  0  0  0  0
   18.8490   38.5050  108.3130 H   0  0  0  0  0  0  0  0  0  0  0  0
   19.3260   37.8250  106.9700 H   0  0  0  0  0  0  0  0  0  0  0  0
   20.7320   36.3970  108.3960 H   0  0  0  0  0  0  0  0  0  0  0  0
   20.4530   37.4520  109.5360 H   0  0  0  0  0  0  0  0  0  0  0  0
   23.2010   37.5430  109.0750 H   0  0  0  0  0  0  0  0  0  0  0  0
   23.5260   38.3470  107.7520 H   0  0  0  0  0  0  0  0  0  0  0  0
   23.1560   35.6310  108.0240 H   0  0  0  0  0  0  0  0  0  0  0  0
   22.3020   36.2220  106.8390 H   0  0  0  0  0  0  0  0  0  0  0  0
   25.6100   35.0450  105.9900 H   0  0  0  0  0  0  0  0  0  0  0  0
   24.5570   34.4280  106.9940 H   0  0  0  0  0  0  0  0  0  0  0  0
    7.8830   31.1280  106.8500 H   0  0  0  0  0  0  0  0  0  0  0  0
   24.4680   34.3640  104.2670 H   0  0  0  0  0  0  0  0  0  0  0  0
   23.1420   35.0140  104.8280 H   0  0  0  0  0  0  0  0  0  0  0  0
    7.8150   32.6650  107.2320 H   0  0  0  0  0  0  0  0  0  0  0  0
   24.4300   31.5070  104.9700 H   0  0  0  0  0  0  0  0  0  0  0  0
   25.1370   32.5300  105.9500 H   0  0  0  0  0  0  0  0  0  0  0  0
   22.8210   31.6030  107.0560 H   0  0  0  0  0  0  0  0  0  0  0  0
   23.7620   30.3940  106.7030 H   0  0  0  0  0  0  0  0  0  0  0  0
   24.0770   32.1460  108.6020 H   0  0  0  0  0  0  0  0  0  0  0  0
   10.0380   31.3860  106.5850 H   0  0  0  0  0  0  0  0  0  0  0  0
    9.7090   32.2610  105.3020 H   0  0  0  0  0  0  0  0  0  0  0  0
   11.8230   32.5530  106.9780 H   0  0  0  0  0  0  0  0  0  0  0  0
   11.5710   33.6900  108.0550 H   0  0  0  0  0  0  0  0  0  0  0  0
   11.5860   34.3040  105.2920 H   0  0  0  0  0  0  0  0  0  0  0  0
   11.7180   35.3400  106.4820 H   0  0  0  0  0  0  0  0  0  0  0  0
   13.5110   35.0140  104.2900 H   0  0  0  0  0  0  0  0  0  0  0  0
   13.7180   36.1210  105.4000 H   0  0  0  0  0  0  0  0  0  0  0  0
   15.8400   35.8580  104.8220 H   0  0  0  0  0  0  0  0  0  0  0  0
   15.6250   34.3550  104.3760 H   0  0  0  0  0  0  0  0  0  0  0  0
    6.5320   32.1720  105.5180 H   0  0  0  0  0  0  0  0  0  0  0  0
    7.3620   32.2880  105.3770 O   0  0  0  0  0  0  0  0  0  0  0  0
   15.9330   34.5770  106.2870 O   0  0  0  0  0  0  0  0  0  0  0  0
   18.2200   36.6590  108.0960 O   0  0  0  0  0  0  0  0  0  0  0  0
   21.5980   38.1330  108.0940 O   0  0  0  0  0  0  0  0  0  0  0  0
   24.2190   36.2990  106.5440 O   0  0  0  0  0  0  0  0  0  0  0  0
   23.3680   33.1270  105.3230 O   0  0  0  0  0  0  0  0  0  0  0  0
   24.4500   31.5270  108.1540 O   0  0  0  0  0  0  0  0  0  0  0  0
   10.0210   33.3120  106.9220 O   0  0  0  0  0  0  0  0  0  0  0  0
   13.3540   34.3450  106.1130 O   0  0  0  0  0  0  0  0  0  0  0  0
  1  2  1  0
  1 17  1  0
  1 18  1  0
  1 52  1  0
  2 19  1  0
  2 20  1  0
  2 53  1  0
  3  4  1  0
  3 21  1  0
  3 22  1  0
  3 53  1  0
  4 23  1  0
  4 24  1  0
  4 54  1  0
  5  6  1  0
  5 25  1  0
  5 26  1  0
  5 54  1  0
  6 27  1  0
  6 28  1  0
  6 55  1  0
  7 12  1  0
  7 31  1  0
  7 34  1  0
  7 51  1  0
  8  9  1  0
  8 29  1  0
  8 30  1  0
  8 55  1  0
  9 32  1  0
  9 33  1  0
  9 56  1  0
 10 11  1  0
 10 35  1  0
 10 36  1  0
 10 56  1  0
 11 37  1  0
 11 38  1  0
 11 57  1  0
 12 40  1  0
 12 41  1  0
 12 58  1  0
 13 14  1  0
 13 42  1  0
 13 43  1  0
 13 58  1  0
 14 44  1  0
 14 45  1  0
 14 59  1  0
 15 16  1  0
 15 46  1  0
 15 47  1  0
 15 59  1  0
 16 48  1  0
 16 49  1  0
 16 52  1  0
 39 57  1  0
 50 51  1  0
M  END
$$$$
