5isf_A_M2M_506
     RDKit          3D

 23 22  0  0  0  0  0  0  0  0999 V2000
   74.2920   41.1010  126.7360 C   0  0  0  0  0  0  0  0  0  0  0  0
   74.9390   40.9460  129.0300 C   0  0  0  0  0  0  0  0  0  0  0  0
   74.4610   41.2660  130.4640 C   0  0  0  0  0  0  0  0  0  0  0  0
   75.3950   39.4010  131.6380 C   0  0  0  0  0  0  0  0  0  0  0  0
   76.6940   38.7410  131.1230 C   0  0  0  0  0  0  0  0  0  0  0  0
   78.4030   37.4340  132.1340 C   0  0  0  0  0  0  0  0  0  0  0  0
   75.0760   40.5600  126.9190 H   0  0  0  0  0  0  0  0  0  0  0  0
   74.6410   41.5240  125.9360 H   0  0  0  0  0  0  0  0  0  0  0  0
   73.3760   41.0290  126.4250 H   0  0  0  0  0  0  0  0  0  0  0  0
   75.0710   39.9900  128.9410 H   0  0  0  0  0  0  0  0  0  0  0  0
   75.7780   41.4030  128.8620 H   0  0  0  0  0  0  0  0  0  0  0  0
   74.3550   42.2250  130.5640 H   0  0  0  0  0  0  0  0  0  0  0  0
   73.6120   40.8270  130.6280 H   0  0  0  0  0  0  0  0  0  0  0  0
   75.3130   39.2460  132.5920 H   0  0  0  0  0  0  0  0  0  0  0  0
   74.6330   39.0100  131.1830 H   0  0  0  0  0  0  0  0  0  0  0  0
   77.4170   39.3870  131.1460 H   0  0  0  0  0  0  0  0  0  0  0  0
   76.5620   38.4350  130.2120 H   0  0  0  0  0  0  0  0  0  0  0  0
   78.5430   36.6280  132.6560 H   0  0  0  0  0  0  0  0  0  0  0  0
   78.7830   38.1930  132.6040 H   0  0  0  0  0  0  0  0  0  0  0  0
   78.8340   37.3400  131.2710 H   0  0  0  0  0  0  0  0  0  0  0  0
   73.9750   41.3760  128.0880 O   0  0  0  0  0  0  0  0  0  0  0  0
   75.4240   40.7970  131.3910 O   0  0  0  0  0  0  0  0  0  0  0  0
   77.0170   37.6400  131.9490 O   0  0  0  0  0  0  0  0  0  0  0  0
  1  7  1  0
  1  8  1  0
  1  9  1  0
  1 21  1  0
  2  3  1  0
  2 10  1  0
  2 11  1  0
  2 21  1  0
  3 12  1  0
  3 13  1  0
  3 22  1  0
  4  5  1  0
  4 14  1  0
  4 15  1  0
  4 22  1  0
  5 16  1  0
  5 17  1  0
  5 23  1  0
  6 18  1  0
  6 19  1  0
  6 20  1  0
  6 23  1  0
M  END
$$$$
