5isg_B_DXE_501
     RDKit          3D

 16 15  0  0  0  0  0  0  0  0999 V2000
   30.8030   10.9200  126.3560 C   0  0  0  0  0  0  0  0  0  0  0  0
   28.6830   10.6730  127.3470 C   0  0  0  0  0  0  0  0  0  0  0  0
   28.1840    9.6830  128.3970 C   0  0  0  0  0  0  0  0  0  0  0  0
   28.5690    9.0120  130.6170 C   0  0  0  0  0  0  0  0  0  0  0  0
   31.5000   10.4190  125.9050 H   0  0  0  0  0  0  0  0  0  0  0  0
   30.5200   11.6580  125.7950 H   0  0  0  0  0  0  0  0  0  0  0  0
   31.1450   11.2650  127.1960 H   0  0  0  0  0  0  0  0  0  0  0  0
   29.0180   11.4700  127.7860 H   0  0  0  0  0  0  0  0  0  0  0  0
   27.9540   10.9120  126.7530 H   0  0  0  0  0  0  0  0  0  0  0  0
   28.4500    8.7840  128.1470 H   0  0  0  0  0  0  0  0  0  0  0  0
   27.2160    9.7290  128.4500 H   0  0  0  0  0  0  0  0  0  0  0  0
   28.9040    8.1670  130.2780 H   0  0  0  0  0  0  0  0  0  0  0  0
   29.0620    9.2580  131.4160 H   0  0  0  0  0  0  0  0  0  0  0  0
   27.6270    8.9240  130.8320 H   0  0  0  0  0  0  0  0  0  0  0  0
   29.7130   10.0800  126.6070 O   0  0  0  0  0  0  0  0  0  0  0  0
   28.7350   10.0030  129.6440 O   0  0  0  0  0  0  0  0  0  0  0  0
  1  5  1  0
  1  6  1  0
  1  7  1  0
  1 15  1  0
  2  3  1  0
  2  8  1  0
  2  9  1  0
  2 15  1  0
  3 10  1  0
  3 11  1  0
  3 16  1  0
  4 12  1  0
  4 13  1  0
  4 14  1  0
  4 16  1  0
M  END
$$$$
