5isg_A_6D6_509
     RDKit          3D

 57 59  0  0  0  0  0  0  0  0999 V2000
   52.6100   31.1650  129.4180 C   0  0  0  0  0  0  0  0  0  0  0  0
   51.9280   35.5660  133.3090 C   0  0  0  0  0  0  0  0  0  0  0  0
   53.5980   34.8140  135.1010 C   0  0  0  0  0  3  0  0  0  0  0  0
   50.6000   36.6330  130.3660 C   0  0  0  0  0  0  0  0  0  0  0  0
   50.0130   38.3670  128.8380 C   0  0  0  0  0  0  0  0  0  0  0  0
   48.8550   37.3880  128.9520 C   0  0  0  0  0  0  0  0  0  0  0  0
   50.6260   41.0990  124.8750 C   0  0  0  0  0  3  0  0  0  0  0  0
   50.4370   42.3250  126.8500 C   0  0  0  0  0  3  0  0  0  0  0  0
   50.3050   39.9770  126.9670 C   0  0  0  0  0  3  0  0  0  0  0  0
   52.3900   32.6850  129.5650 C   0  0  0  0  0  0  0  0  0  0  0  0
   51.5690   32.9940  130.8230 C   0  0  0  0  0  0  0  0  0  0  0  0
   52.5110   34.9250  131.9890 C   0  0  0  0  0  0  0  0  0  0  0  0
   52.9750   36.0070  134.3090 C   0  0  0  0  0  0  0  0  0  0  0  0
   51.2020   35.2080  129.9640 C   0  0  0  0  0  0  0  0  0  0  0  0
   49.1310   36.6650  130.1910 C   0  0  0  0  0  0  0  0  0  0  0  0
   50.2830   37.8510  126.4070 C   0  0  0  0  0  3  0  0  0  0  0  0
   50.4750   39.8970  125.6120 C   0  0  0  0  0  3  0  0  0  0  0  0
   51.7770   30.7460  129.1860 H   0  0  0  0  0  0  0  0  0  0  0  0
   50.5530   34.7510  129.3860 H   0  0  0  0  0  0  0  0  0  0  0  0
   52.0580   35.3190  129.4740 H   0  0  0  0  0  0  0  0  0  0  0  0
   48.7780   35.7640  130.1500 H   0  0  0  0  0  0  0  0  0  0  0  0
   50.2250   36.8690  126.4580 H   0  0  0  0  0  0  0  0  0  0  0  0
   53.5880   31.5990  127.8200 H   0  0  0  0  0  0  0  0  0  0  0  0
   53.3210   30.1290  127.9350 H   0  0  0  0  0  0  0  0  0  0  0  0
   51.3920   36.3590  133.0530 H   0  0  0  0  0  0  0  0  0  0  0  0
   51.3330   34.9110  133.7480 H   0  0  0  0  0  0  0  0  0  0  0  0
   52.9330   30.7960  130.2710 H   0  0  0  0  0  0  0  0  0  0  0  0
   54.8230   36.2710  133.7230 H   0  0  0  0  0  0  0  0  0  0  0  0
   54.1250   37.5580  134.0280 H   0  0  0  0  0  0  0  0  0  0  0  0
   50.8250   36.8170  131.2940 H   0  0  0  0  0  0  0  0  0  0  0  0
   49.8170   39.1840  129.3420 H   0  0  0  0  0  0  0  0  0  0  0  0
   48.8590   36.7850  128.1960 H   0  0  0  0  0  0  0  0  0  0  0  0
   47.4390   38.3330  129.8520 H   0  0  0  0  0  0  0  0  0  0  0  0
   49.1350   37.9810  131.6190 H   0  0  0  0  0  0  0  0  0  0  0  0
   51.5220   41.4740  123.0680 H   0  0  0  0  0  0  0  0  0  0  0  0
   51.9310   33.0170  128.7860 H   0  0  0  0  0  0  0  0  0  0  0  0
   50.2030   40.5890  122.9370 H   0  0  0  0  0  0  0  0  0  0  0  0
   50.4220   43.2080  127.3070 H   0  0  0  0  0  0  0  0  0  0  0  0
   53.2580   33.1250  129.6290 H   0  0  0  0  0  0  0  0  0  0  0  0
   50.6860   32.6070  130.7090 H   0  0  0  0  0  0  0  0  0  0  0  0
   52.0020   32.5550  131.5850 H   0  0  0  0  0  0  0  0  0  0  0  0
   53.0220   35.6140  131.4820 H   0  0  0  0  0  0  0  0  0  0  0  0
   53.1060   34.1920  132.2260 H   0  0  0  0  0  0  0  0  0  0  0  0
   52.5510   36.6030  134.9410 H   0  0  0  0  0  0  0  0  0  0  0  0
   53.5640   30.9030  128.3950 N   0  0  0  0  0  0  0  0  0  0  0  0
   51.4100   34.4140  131.1450 N   0  0  0  0  0  0  0  0  0  0  0  0
   54.0340   36.7370  133.6450 N   0  0  0  0  0  0  0  0  0  0  0  0
   50.1710   38.6940  127.4370 N   0  0  0  0  0  0  0  0  0  0  0  0
   50.4530   38.5720  125.2800 N   0  0  0  0  0  2  0  0  0  0  0  0
   50.8030   41.0470  123.4590 N   0  0  0  0  0  0  0  0  0  0  0  0
   50.6020   42.2780  125.5210 N   0  0  0  0  0  2  0  0  0  0  0  0
   50.2910   41.1940  127.5880 N   0  0  0  0  0  2  0  0  0  0  0  0
   54.7680   34.3960  134.8090 O   0  0  0  0  0  1  0  0  0  0  0  0
   52.9340   34.2600  136.0460 O   0  0  0  0  0  1  0  0  0  0  0  0
   51.1680   37.6680  129.4960 O   0  0  0  0  0  0  0  0  0  0  0  0
   47.6100   38.0800  129.0020 O   0  0  0  0  0  0  0  0  0  0  0  0
   48.5520   37.3670  131.3150 O   0  0  0  0  0  0  0  0  0  0  0  0
  1 10  1  0
  1 18  1  0
  1 27  1  0
  1 45  1  0
  2 12  1  0
  2 13  1  0
  2 25  1  0
  2 26  1  0
  3 13  1  0
  3 53  1  0
  3 54  1  0
  4 14  1  0
  4 15  1  0
  4 30  1  0
  4 55  1  0
  5  6  1  0
  5 31  1  0
  5 48  1  0
  5 55  1  0
  6 15  1  0
  6 32  1  0
  6 56  1  0
  7 17  1  0
  7 50  1  0
  7 51  1  0
  8 38  1  0
  8 51  1  0
  8 52  1  0
  9 17  1  0
  9 48  1  0
  9 52  1  0
 10 11  1  0
 10 36  1  0
 10 39  1  0
 11 40  1  0
 11 41  1  0
 11 46  1  0
 12 42  1  0
 12 43  1  0
 12 46  1  0
 13 44  1  0
 13 47  1  0
 14 19  1  0
 14 20  1  0
 14 46  1  0
 15 21  1  0
 15 57  1  0
 16 22  1  0
 16 48  1  0
 16 49  1  0
 17 49  1  0
 23 45  1  0
 24 45  1  0
 28 47  1  0
 29 47  1  0
 33 56  1  0
 34 57  1  0
 35 50  1  0
 37 50  1  0
M  END
$$$$
