5ish_C_DXE_508
     RDKit          3D

 16 15  0  0  0  0  0  0  0  0999 V2000
   10.2260   48.7280  188.3960 C   0  0  0  0  0  0  0  0  0  0  0  0
    8.3080   47.6330  187.5390 C   0  0  0  0  0  0  0  0  0  0  0  0
    7.8050   46.2120  187.2820 C   0  0  0  0  0  0  0  0  0  0  0  0
    6.3960   45.6290  189.1010 C   0  0  0  0  0  0  0  0  0  0  0  0
   10.0950   49.5180  187.8480 H   0  0  0  0  0  0  0  0  0  0  0  0
    9.7720   48.8450  189.2450 H   0  0  0  0  0  0  0  0  0  0  0  0
   11.1740   48.5950  188.5510 H   0  0  0  0  0  0  0  0  0  0  0  0
    7.8770   47.9910  188.3310 H   0  0  0  0  0  0  0  0  0  0  0  0
    8.0990   48.1940  186.7760 H   0  0  0  0  0  0  0  0  0  0  0  0
    8.3880   45.5790  187.7310 H   0  0  0  0  0  0  0  0  0  0  0  0
    7.8140   46.0360  186.3290 H   0  0  0  0  0  0  0  0  0  0  0  0
    6.7300   44.7210  189.1700 H   0  0  0  0  0  0  0  0  0  0  0  0
    6.9230   46.2110  189.6720 H   0  0  0  0  0  0  0  0  0  0  0  0
    5.4680   45.6550  189.3810 H   0  0  0  0  0  0  0  0  0  0  0  0
    9.6980   47.6080  187.7340 O   0  0  0  0  0  0  0  0  0  0  0  0
    6.4970   46.0640  187.7700 O   0  0  0  0  0  0  0  0  0  0  0  0
  1  5  1  0
  1  6  1  0
  1  7  1  0
  1 15  1  0
  2  3  1  0
  2  8  1  0
  2  9  1  0
  2 15  1  0
  3 10  1  0
  3 11  1  0
  3 16  1  0
  4 12  1  0
  4 13  1  0
  4 14  1  0
  4 16  1  0
M  END
$$$$
