5ish_A_M2M_507
     RDKit          3D

 23 22  0  0  0  0  0  0  0  0999 V2000
   46.5450   11.1840  109.5770 C   0  0  0  0  0  0  0  0  0  0  0  0
   46.1950    9.0000  108.6080 C   0  0  0  0  0  0  0  0  0  0  0  0
   47.0580    8.1360  109.5540 C   0  0  0  0  0  0  0  0  0  0  0  0
   46.9010    5.9580  108.5820 C   0  0  0  0  0  0  0  0  0  0  0  0
   47.7170    4.9200  107.7700 C   0  0  0  0  0  0  0  0  0  0  0  0
   49.6020    3.6470  108.5340 C   0  0  0  0  0  0  0  0  0  0  0  0
   47.2860   10.8470  109.0500 H   0  0  0  0  0  0  0  0  0  0  0  0
   46.6870   12.1210  109.3710 H   0  0  0  0  0  0  0  0  0  0  0  0
   46.2670   11.3210  110.4970 H   0  0  0  0  0  0  0  0  0  0  0  0
   45.4660    8.4630  108.2580 H   0  0  0  0  0  0  0  0  0  0  0  0
   46.7420    9.3160  107.8720 H   0  0  0  0  0  0  0  0  0  0  0  0
   46.4940    7.7360  110.2340 H   0  0  0  0  0  0  0  0  0  0  0  0
   47.7320    8.6910  109.9760 H   0  0  0  0  0  0  0  0  0  0  0  0
   46.1030    6.1990  108.0870 H   0  0  0  0  0  0  0  0  0  0  0  0
   46.6480    5.5730  109.4360 H   0  0  0  0  0  0  0  0  0  0  0  0
   47.6830    5.1490  106.8280 H   0  0  0  0  0  0  0  0  0  0  0  0
   47.3360    4.0380  107.9010 H   0  0  0  0  0  0  0  0  0  0  0  0
   49.6250    3.0890  107.7410 H   0  0  0  0  0  0  0  0  0  0  0  0
   49.0470    3.2270  109.2090 H   0  0  0  0  0  0  0  0  0  0  0  0
   50.5030    3.7570  108.8780 H   0  0  0  0  0  0  0  0  0  0  0  0
   45.6630   10.1120  109.3080 O   0  0  0  0  0  0  0  0  0  0  0  0
   47.6890    7.1150  108.8000 O   0  0  0  0  0  0  0  0  0  0  0  0
   49.0650    4.9170  108.2030 O   0  0  0  0  0  0  0  0  0  0  0  0
  1  7  1  0
  1  8  1  0
  1  9  1  0
  1 21  1  0
  2  3  1  0
  2 10  1  0
  2 11  1  0
  2 21  1  0
  3 12  1  0
  3 13  1  0
  3 22  1  0
  4  5  1  0
  4 14  1  0
  4 15  1  0
  4 22  1  0
  5 16  1  0
  5 17  1  0
  5 23  1  0
  6 18  1  0
  6 19  1  0
  6 20  1  0
  6 23  1  0
M  END
$$$$
