5ish_D_DXE_503
     RDKit          3D

 16 15  0  0  0  0  0  0  0  0999 V2000
   46.0490   23.0600  183.3730 C   0  0  0  0  0  0  0  0  0  0  0  0
   46.3550   24.0950  185.4700 C   0  0  0  0  0  0  0  0  0  0  0  0
   45.5750   24.5530  186.7050 C   0  0  0  0  0  0  0  0  0  0  0  0
   43.8590   26.0820  187.2580 C   0  0  0  0  0  0  0  0  0  0  0  0
   46.9620   22.7340  183.4110 H   0  0  0  0  0  0  0  0  0  0  0  0
   45.4940   22.4120  182.9130 H   0  0  0  0  0  0  0  0  0  0  0  0
   46.0270   23.9030  182.8940 H   0  0  0  0  0  0  0  0  0  0  0  0
   47.1500   23.6180  185.7530 H   0  0  0  0  0  0  0  0  0  0  0  0
   46.6150   24.8720  184.9500 H   0  0  0  0  0  0  0  0  0  0  0  0
   46.1180   25.1730  187.2160 H   0  0  0  0  0  0  0  0  0  0  0  0
   45.3620   23.7830  187.2540 H   0  0  0  0  0  0  0  0  0  0  0  0
   44.5410   26.7230  187.5130 H   0  0  0  0  0  0  0  0  0  0  0  0
   43.1030   26.5510  186.8730 H   0  0  0  0  0  0  0  0  0  0  0  0
   43.5690   25.5890  188.0420 H   0  0  0  0  0  0  0  0  0  0  0  0
   45.5650   23.2500  184.6770 O   0  0  0  0  0  0  0  0  0  0  0  0
   44.3870   25.1880  186.3130 O   0  0  0  0  0  0  0  0  0  0  0  0
  1  5  1  0
  1  6  1  0
  1  7  1  0
  1 15  1  0
  2  3  1  0
  2  8  1  0
  2  9  1  0
  2 15  1  0
  3 10  1  0
  3 11  1  0
  3 16  1  0
  4 12  1  0
  4 13  1  0
  4 14  1  0
  4 16  1  0
M  END
$$$$
