5isi_C_DXE_503
     RDKit          3D

 16 15  0  0  0  0  0  0  0  0999 V2000
   29.1130   28.1200  182.9160 C   0  0  0  0  0  0  0  0  0  0  0  0
   30.4200   29.6320  184.1540 C   0  0  0  0  0  0  0  0  0  0  0  0
   31.5670   30.6050  183.8810 C   0  0  0  0  0  0  0  0  0  0  0  0
   33.6000   29.8280  184.7990 C   0  0  0  0  0  0  0  0  0  0  0  0
   28.5260   28.0170  183.6820 H   0  0  0  0  0  0  0  0  0  0  0  0
   28.5950   28.0440  182.0990 H   0  0  0  0  0  0  0  0  0  0  0  0
   29.7920   27.4290  182.9340 H   0  0  0  0  0  0  0  0  0  0  0  0
   29.8140   30.0200  184.8040 H   0  0  0  0  0  0  0  0  0  0  0  0
   30.7780   28.8000  184.5020 H   0  0  0  0  0  0  0  0  0  0  0  0
   31.2080   31.4970  183.7500 H   0  0  0  0  0  0  0  0  0  0  0  0
   32.0400   30.3290  183.0810 H   0  0  0  0  0  0  0  0  0  0  0  0
   33.3470   28.8920  184.7630 H   0  0  0  0  0  0  0  0  0  0  0  0
   34.0440   30.0750  183.9720 H   0  0  0  0  0  0  0  0  0  0  0  0
   34.2030   29.9720  185.5450 H   0  0  0  0  0  0  0  0  0  0  0  0
   29.7260   29.3780  182.9640 O   0  0  0  0  0  0  0  0  0  0  0  0
   32.4540   30.6160  184.9660 O   0  0  0  0  0  0  0  0  0  0  0  0
  1  5  1  0
  1  6  1  0
  1  7  1  0
  1 15  1  0
  2  3  1  0
  2  8  1  0
  2  9  1  0
  2 15  1  0
  3 10  1  0
  3 11  1  0
  3 16  1  0
  4 12  1  0
  4 13  1  0
  4 14  1  0
  4 16  1  0
M  END
$$$$
