5k8w_C_DXE_503
     RDKit          3D

 16 15  0  0  0  0  0  0  0  0999 V2000
    7.0450   23.7590  177.4490 C   0  0  0  0  0  0  0  0  0  0  0  0
    6.0390   24.8100  179.3040 C   0  0  0  0  0  0  0  0  0  0  0  0
    4.6490   24.1830  179.3950 C   0  0  0  0  0  0  0  0  0  0  0  0
    2.3850   24.7750  179.6570 C   0  0  0  0  0  0  0  0  0  0  0  0
    7.7430   23.1290  177.2140 H   0  0  0  0  0  0  0  0  0  0  0  0
    6.1990   23.4550  177.0870 H   0  0  0  0  0  0  0  0  0  0  0  0
    7.2590   24.6310  177.0820 H   0  0  0  0  0  0  0  0  0  0  0  0
    6.3120   25.1220  180.1820 H   0  0  0  0  0  0  0  0  0  0  0  0
    6.0180   25.5580  178.6870 H   0  0  0  0  0  0  0  0  0  0  0  0
    4.6700   23.4420  180.0190 H   0  0  0  0  0  0  0  0  0  0  0  0
    4.3830   23.8610  178.5190 H   0  0  0  0  0  0  0  0  0  0  0  0
    1.8100   25.4340  180.0770 H   0  0  0  0  0  0  0  0  0  0  0  0
    2.1870   24.7320  178.7080 H   0  0  0  0  0  0  0  0  0  0  0  0
    2.2290   23.9060  180.0600 H   0  0  0  0  0  0  0  0  0  0  0  0
    6.9500   23.8510  178.8460 O   0  0  0  0  0  0  0  0  0  0  0  0
    3.7260   25.1410  179.8390 O   0  0  0  0  0  0  0  0  0  0  0  0
  1  5  1  0
  1  6  1  0
  1  7  1  0
  1 15  1  0
  2  3  1  0
  2  8  1  0
  2  9  1  0
  2 15  1  0
  3 10  1  0
  3 11  1  0
  3 16  1  0
  4 12  1  0
  4 13  1  0
  4 14  1  0
  4 16  1  0
M  END
$$$$
