5k8x_B_DXE_506
     RDKit          3D

 16 15  0  0  0  0  0  0  0  0999 V2000
   33.1250   26.6080  123.5780 C   0  0  0  0  0  0  0  0  0  0  0  0
   30.8310   25.9980  123.6920 C   0  0  0  0  0  0  0  0  0  0  0  0
   30.0850   24.6820  123.9070 C   0  0  0  0  0  0  0  0  0  0  0  0
   29.7470   23.0400  125.5810 C   0  0  0  0  0  0  0  0  0  0  0  0
   32.9420   27.4890  123.2170 H   0  0  0  0  0  0  0  0  0  0  0  0
   33.9770   26.2900  123.2380 H   0  0  0  0  0  0  0  0  0  0  0  0
   33.1610   26.6550  124.5460 H   0  0  0  0  0  0  0  0  0  0  0  0
   30.9090   26.4700  124.5360 H   0  0  0  0  0  0  0  0  0  0  0  0
   30.3450   26.5470  123.0570 H   0  0  0  0  0  0  0  0  0  0  0  0
   29.1360   24.8600  124.0000 H   0  0  0  0  0  0  0  0  0  0  0  0
   30.2320   24.0980  123.1470 H   0  0  0  0  0  0  0  0  0  0  0  0
   30.1990   22.6030  126.3190 H   0  0  0  0  0  0  0  0  0  0  0  0
   29.5680   22.3920  124.8820 H   0  0  0  0  0  0  0  0  0  0  0  0
   28.9100   23.4190  125.8930 H   0  0  0  0  0  0  0  0  0  0  0  0
   32.1090   25.7240  123.1910 O   0  0  0  0  0  0  0  0  0  0  0  0
   30.5620   24.0620  125.0730 O   0  0  0  0  0  0  0  0  0  0  0  0
  1  5  1  0
  1  6  1  0
  1  7  1  0
  1 15  1  0
  2  3  1  0
  2  8  1  0
  2  9  1  0
  2 15  1  0
  3 10  1  0
  3 11  1  0
  3 16  1  0
  4 12  1  0
  4 13  1  0
  4 14  1  0
  4 16  1  0
M  END
$$$$
