5lgq_H_8ZB_101
     RDKit          3D

 36 38  0  0  0  0  0  0  0  0999 V2000
   52.5190   19.7170  189.0330 C   0  0  0  0  0  3  0  0  0  0  0  0
   52.0340   19.6440  190.4660 C   0  0  0  0  0  0  0  0  0  0  0  0
   52.4850   20.8610  191.2660 C   0  0  0  0  0  0  0  0  0  0  0  0
   52.1790   20.7540  192.7460 C   0  0  0  0  0  0  0  0  0  0  0  0
   51.9860   22.5730  194.2130 C   0  0  0  0  0  0  0  0  0  0  0  0
   50.6310   22.3830  193.5320 C   0  0  0  0  0  0  0  0  0  0  0  0
   50.7130   20.9070  193.1370 C   0  0  0  0  0  0  0  0  0  0  0  0
   52.4620   24.8140  193.1200 C   0  0  0  0  0  3  0  0  0  0  0  0
   53.5300   25.8240  194.6500 C   0  0  0  0  0  3  0  0  0  0  0  0
   53.1950   24.5850  195.1670 C   0  0  0  0  0  3  0  0  0  0  0  0
   54.1840   25.0210  197.0890 C   0  0  0  0  0  3  0  0  0  0  0  0
   54.2650   26.6870  195.4870 C   0  0  0  0  0  3  0  0  0  0  0  0
   51.9470   20.4560  188.4740 H   0  0  0  0  0  0  0  0  0  0  0  0
   50.9490   19.5580  190.5150 H   0  0  0  0  0  0  0  0  0  0  0  0
   53.5480   20.0750  189.0280 H   0  0  0  0  0  0  0  0  0  0  0  0
   52.0350   21.7810  190.8970 H   0  0  0  0  0  0  0  0  0  0  0  0
   52.3980   18.7350  190.9430 H   0  0  0  0  0  0  0  0  0  0  0  0
   53.5530   21.0120  191.1130 H   0  0  0  0  0  0  0  0  0  0  0  0
   50.0080   20.6540  192.3460 H   0  0  0  0  0  0  0  0  0  0  0  0
   50.4960   22.9980  192.6440 H   0  0  0  0  0  0  0  0  0  0  0  0
   51.0130   20.1600  194.9530 H   0  0  0  0  0  0  0  0  0  0  0  0
   49.6830   22.0020  195.1950 H   0  0  0  0  0  0  0  0  0  0  0  0
   54.4640   24.7180  198.0970 H   0  0  0  0  0  0  0  0  0  0  0  0
   51.9740   24.5890  192.1730 H   0  0  0  0  0  0  0  0  0  0  0  0
   55.2060   28.4970  195.7550 H   0  0  0  0  0  0  0  0  0  0  0  0
   54.4680   28.2590  194.1950 H   0  0  0  0  0  0  0  0  0  0  0  0
   52.5700   19.7970  193.0890 H   0  0  0  0  0  0  0  0  0  0  0  0
   51.9880   22.2510  195.2530 H   0  0  0  0  0  0  0  0  0  0  0  0
   52.5090   23.9350  194.1700 N   0  0  0  0  0  0  0  0  0  0  0  0
   53.0580   25.9590  193.3530 N   0  0  0  0  0  2  0  0  0  0  0  0
   53.4930   24.1190  196.3880 N   0  0  0  0  0  2  0  0  0  0  0  0
   54.5790   26.2440  196.7250 N   0  0  0  0  0  2  0  0  0  0  0  0
   54.6780   27.9040  195.1230 N   0  0  0  0  0  0  0  0  0  0  0  0
   52.8970   21.7280  193.5350 O   0  0  0  0  0  0  0  0  0  0  0  0
   49.5690   22.6410  194.4440 O   0  0  0  0  0  0  0  0  0  0  0  0
   50.3730   20.0310  194.2050 O   0  0  0  0  0  0  0  0  0  0  0  0
  1  2  1  0
  1 13  1  0
  1 15  1  0
  2  3  1  0
  2 14  1  0
  2 17  1  0
  3  4  1  0
  3 16  1  0
  3 18  1  0
  4  7  1  0
  4 27  1  0
  4 34  1  0
  5  6  1  0
  5 28  1  0
  5 29  1  0
  5 34  1  0
  6  7  1  0
  6 20  1  0
  6 35  1  0
  7 19  1  0
  7 36  1  0
  8 24  1  0
  8 29  1  0
  8 30  1  0
  9 10  1  0
  9 12  1  0
  9 30  1  0
 10 29  1  0
 10 31  1  0
 11 23  1  0
 11 31  1  0
 11 32  1  0
 12 32  1  0
 12 33  1  0
 21 36  1  0
 22 35  1  0
 25 33  1  0
 26 33  1  0
M  END
$$$$
