5lgr_B_PG6_502
     RDKit          3D

 44 43  0  0  0  0  0  0  0  0999 V2000
   24.0660   33.9510  106.2200 C   0  0  0  0  0  0  0  0  0  0  0  0
   13.3760   33.6090  106.2090 C   0  0  0  0  0  0  0  0  0  0  0  0
   12.3590   34.0850  107.2480 C   0  0  0  0  0  0  0  0  0  0  0  0
   10.4030   33.3610  108.3270 C   0  0  0  0  0  0  0  0  0  0  0  0
   23.8680   35.6460  107.8380 C   0  0  0  0  0  0  0  0  0  0  0  0
   23.9060   37.1640  107.9850 C   0  0  0  0  0  0  0  0  0  0  0  0
   22.0440   38.2580  109.0320 C   0  0  0  0  0  0  0  0  0  0  0  0
   20.8670   37.2980  109.1740 C   0  0  0  0  0  0  0  0  0  0  0  0
   18.5230   37.2320  109.3820 C   0  0  0  0  0  0  0  0  0  0  0  0
   18.2540   36.3910  108.1340 C   0  0  0  0  0  0  0  0  0  0  0  0
   16.5990   35.1480  107.0530 C   0  0  0  0  0  0  0  0  0  0  0  0
   15.3060   34.3850  107.3330 C   0  0  0  0  0  0  0  0  0  0  0  0
   13.6700   32.7110  106.4310 H   0  0  0  0  0  0  0  0  0  0  0  0
   12.9650   33.6060  105.3300 H   0  0  0  0  0  0  0  0  0  0  0  0
   24.3530   33.7900  105.3080 H   0  0  0  0  0  0  0  0  0  0  0  0
   12.7720   34.0990  108.1260 H   0  0  0  0  0  0  0  0  0  0  0  0
   12.0490   34.9750  107.0180 H   0  0  0  0  0  0  0  0  0  0  0  0
   24.5800   33.3930  106.8240 H   0  0  0  0  0  0  0  0  0  0  0  0
    9.7630   32.6320  108.3400 H   0  0  0  0  0  0  0  0  0  0  0  0
   10.9060   33.3640  109.1560 H   0  0  0  0  0  0  0  0  0  0  0  0
    9.9310   34.2030  108.2330 H   0  0  0  0  0  0  0  0  0  0  0  0
   23.1240   33.7370  106.3050 H   0  0  0  0  0  0  0  0  0  0  0  0
   24.4690   35.2430  108.4830 H   0  0  0  0  0  0  0  0  0  0  0  0
   22.9650   35.3280  107.9930 H   0  0  0  0  0  0  0  0  0  0  0  0
   23.4720   37.5770  107.2220 H   0  0  0  0  0  0  0  0  0  0  0  0
   24.8270   37.4640  108.0380 H   0  0  0  0  0  0  0  0  0  0  0  0
   22.0030   38.9330  109.7280 H   0  0  0  0  0  0  0  0  0  0  0  0
   22.0170   38.6830  108.1610 H   0  0  0  0  0  0  0  0  0  0  0  0
   20.9430   36.8170  110.0130 H   0  0  0  0  0  0  0  0  0  0  0  0
   20.8750   36.6660  108.4380 H   0  0  0  0  0  0  0  0  0  0  0  0
   18.6720   36.6480  110.1420 H   0  0  0  0  0  0  0  0  0  0  0  0
   17.7620   37.8070  109.5570 H   0  0  0  0  0  0  0  0  0  0  0  0
   18.2960   36.9570  107.3480 H   0  0  0  0  0  0  0  0  0  0  0  0
   18.9230   35.6920  108.0660 H   0  0  0  0  0  0  0  0  0  0  0  0
   17.2940   34.5260  106.7860 H   0  0  0  0  0  0  0  0  0  0  0  0
   16.4490   35.7950  106.3450 H   0  0  0  0  0  0  0  0  0  0  0  0
   14.8570   34.7760  108.0990 H   0  0  0  0  0  0  0  0  0  0  0  0
   15.5100   33.4550  107.5150 H   0  0  0  0  0  0  0  0  0  0  0  0
   24.2700   35.3000  106.5430 O   0  0  0  0  0  0  0  0  0  0  0  0
   23.2270   37.5130  109.1610 O   0  0  0  0  0  0  0  0  0  0  0  0
   19.6650   38.0160  109.1580 O   0  0  0  0  0  0  0  0  0  0  0  0
   16.9840   35.8130  108.2250 O   0  0  0  0  0  0  0  0  0  0  0  0
   14.4790   34.4750  106.2070 O   0  0  0  0  0  0  0  0  0  0  0  0
   11.2800   33.1940  107.2490 O   0  0  0  0  0  0  0  0  0  0  0  0
  1 15  1  0
  1 18  1  0
  1 22  1  0
  1 39  1  0
  2  3  1  0
  2 13  1  0
  2 14  1  0
  2 43  1  0
  3 16  1  0
  3 17  1  0
  3 44  1  0
  4 19  1  0
  4 20  1  0
  4 21  1  0
  4 44  1  0
  5  6  1  0
  5 23  1  0
  5 24  1  0
  5 39  1  0
  6 25  1  0
  6 26  1  0
  6 40  1  0
  7  8  1  0
  7 27  1  0
  7 28  1  0
  7 40  1  0
  8 29  1  0
  8 30  1  0
  8 41  1  0
  9 10  1  0
  9 31  1  0
  9 32  1  0
  9 41  1  0
 10 33  1  0
 10 34  1  0
 10 42  1  0
 11 12  1  0
 11 35  1  0
 11 36  1  0
 11 42  1  0
 12 37  1  0
 12 38  1  0
 12 43  1  0
M  END
$$$$
