5lgs_H_QVR_101
     RDKit          3D

 34 36  0  0  0  0  0  0  0  0999 V2000
   52.6330   19.9580  189.7910 C   0  0  0  0  0  3  0  0  0  0  0  0
   52.4730   19.8330  191.2750 C   0  0  0  0  0  3  0  0  0  0  0  0
   52.2540   20.8390  192.0980 C   0  0  0  0  0  3  0  0  0  0  0  0
   52.1130   20.5630  193.5580 C   0  0  0  0  0  0  0  0  0  0  0  0
   52.1390   22.3810  195.0320 C   0  0  0  0  0  0  0  0  0  0  0  0
   50.7320   22.2670  194.4480 C   0  0  0  0  0  0  0  0  0  0  0  0
   50.6980   20.7800  194.0970 C   0  0  0  0  0  0  0  0  0  0  0  0
   52.7480   24.5360  193.8390 C   0  0  0  0  0  3  0  0  0  0  0  0
   53.7990   25.5910  195.3510 C   0  0  0  0  0  3  0  0  0  0  0  0
   53.4150   24.3860  195.9160 C   0  0  0  0  0  3  0  0  0  0  0  0
   54.3510   24.8920  197.8460 C   0  0  0  0  0  3  0  0  0  0  0  0
   54.5250   26.4760  196.1710 C   0  0  0  0  0  3  0  0  0  0  0  0
   52.5500   18.8180  191.6630 H   0  0  0  0  0  0  0  0  0  0  0  0
   53.5300   20.5520  189.6170 H   0  0  0  0  0  0  0  0  0  0  0  0
   51.8050   20.5200  189.3610 H   0  0  0  0  0  0  0  0  0  0  0  0
   52.1700   21.8730  191.7660 H   0  0  0  0  0  0  0  0  0  0  0  0
   49.9070   20.5090  193.3990 H   0  0  0  0  0  0  0  0  0  0  0  0
   50.6160   22.8570  193.5400 H   0  0  0  0  0  0  0  0  0  0  0  0
   51.2970   19.6830  195.6320 H   0  0  0  0  0  0  0  0  0  0  0  0
   50.1820   22.5170  196.2940 H   0  0  0  0  0  0  0  0  0  0  0  0
   54.5960   24.6420  198.8770 H   0  0  0  0  0  0  0  0  0  0  0  0
   52.2750   24.2530  192.9000 H   0  0  0  0  0  0  0  0  0  0  0  0
   55.4880   28.2950  196.3730 H   0  0  0  0  0  0  0  0  0  0  0  0
   54.7920   28.0030  194.8240 H   0  0  0  0  0  0  0  0  0  0  0  0
   52.4840   19.5620  193.7750 H   0  0  0  0  0  0  0  0  0  0  0  0
   52.1830   22.0780  196.0770 H   0  0  0  0  0  0  0  0  0  0  0  0
   52.7370   23.7090  194.9310 N   0  0  0  0  0  0  0  0  0  0  0  0
   53.3700   25.6730  194.0350 N   0  0  0  0  0  2  0  0  0  0  0  0
   53.6610   23.9730  197.1660 N   0  0  0  0  0  2  0  0  0  0  0  0
   54.7880   26.0860  197.4370 N   0  0  0  0  0  2  0  0  0  0  0  0
   54.9660   27.6710  195.7670 N   0  0  0  0  0  0  0  0  0  0  0  0
   52.9450   21.4690  194.3070 O   0  0  0  0  0  0  0  0  0  0  0  0
   49.7440   22.6230  195.4090 O   0  0  0  0  0  0  0  0  0  0  0  0
   50.4330   19.9700  195.2360 O   0  0  0  0  0  0  0  0  0  0  0  0
  1  2  1  0
  1 14  1  0
  1 15  1  0
  2  3  1  0
  2 13  1  0
  3  4  1  0
  3 16  1  0
  4  7  1  0
  4 25  1  0
  4 32  1  0
  5  6  1  0
  5 26  1  0
  5 27  1  0
  5 32  1  0
  6  7  1  0
  6 18  1  0
  6 33  1  0
  7 17  1  0
  7 34  1  0
  8 22  1  0
  8 27  1  0
  8 28  1  0
  9 10  1  0
  9 12  1  0
  9 28  1  0
 10 27  1  0
 10 29  1  0
 11 21  1  0
 11 29  1  0
 11 30  1  0
 12 30  1  0
 12 31  1  0
 19 34  1  0
 20 33  1  0
 23 31  1  0
 24 31  1  0
M  END
$$$$
