5lgs_B_DXE_501
     RDKit          3D

 16 15  0  0  0  0  0  0  0  0999 V2000
   11.5810    9.9460  134.6370 C   0  0  0  0  0  0  0  0  0  0  0  0
   10.4080   11.9600  134.9580 C   0  0  0  0  0  0  0  0  0  0  0  0
    9.0070   12.4640  135.2990 C   0  0  0  0  0  0  0  0  0  0  0  0
    6.7300   11.9250  135.0330 C   0  0  0  0  0  0  0  0  0  0  0  0
   11.5940    9.0150  134.9110 H   0  0  0  0  0  0  0  0  0  0  0  0
   11.5230    9.9970  133.6700 H   0  0  0  0  0  0  0  0  0  0  0  0
   12.3940   10.3820  134.9350 H   0  0  0  0  0  0  0  0  0  0  0  0
   11.0610   12.4200  135.5080 H   0  0  0  0  0  0  0  0  0  0  0  0
   10.5950   12.1300  134.0210 H   0  0  0  0  0  0  0  0  0  0  0  0
    8.8820   13.3520  134.9290 H   0  0  0  0  0  0  0  0  0  0  0  0
    8.8990   12.4960  136.2620 H   0  0  0  0  0  0  0  0  0  0  0  0
    6.1370   11.3380  134.5380 H   0  0  0  0  0  0  0  0  0  0  0  0
    6.5650   12.8450  134.7750 H   0  0  0  0  0  0  0  0  0  0  0  0
    6.5670   11.8220  135.9840 H   0  0  0  0  0  0  0  0  0  0  0  0
   10.4730   10.5840  135.2060 O   0  0  0  0  0  0  0  0  0  0  0  0
    8.0590   11.5920  134.7500 O   0  0  0  0  0  0  0  0  0  0  0  0
  1  5  1  0
  1  6  1  0
  1  7  1  0
  1 15  1  0
  2  3  1  0
  2  8  1  0
  2  9  1  0
  2 15  1  0
  3 10  1  0
  3 11  1  0
  3 16  1  0
  4 12  1  0
  4 13  1  0
  4 14  1  0
  4 16  1  0
M  END
$$$$
