5lkj_A_6YB_501
     RDKit          3D

 59 80  0  0  0  0  0  0  0  0999 V2000
   52.9860   34.5520  136.4610 C   0  0  0  0  0  3  0  0  0  0  0  0
   49.9780   37.9900  129.8270 C   0  0  0  0  0  0  0  0  0  0  0  0
   51.3080   32.6190  131.7490 C   0  0  0  0  0  6  0  0  0  0  0  0
   52.3380   32.2020  130.7140 C   0  0  0  0  0  5  0  0  0  0  0  0
   52.0120   29.6780  130.2710 C   0  0  0  0  0  3  0  0  0  0  0  0
   50.3870   41.9830  128.0440 C   0  0  0  0  0  3  0  0  0  0  0  0
   48.8120   37.0120  129.8250 C   0  0  0  0  0  0  0  0  0  0  0  0
   49.0250   36.2090  131.0380 C   0  0  0  0  0  0  0  0  0  0  0  0
   50.2870   39.6470  128.0200 C   0  0  0  0  0  3  0  0  0  0  0  0
   50.4970   36.2410  131.3010 C   0  0  0  0  0  0  0  0  0  0  0  0
   50.4830   39.6510  126.6390 C   0  0  0  0  0  3  0  0  0  0  0  0
   51.2350   34.9430  130.9200 C   0  0  0  0  0  5  0  0  0  0  0  0
   50.6280   40.8770  125.9930 C   0  0  0  0  0  3  0  0  0  0  0  0
   50.3040   37.5640  127.3280 C   0  0  0  0  0  3  0  0  0  0  0  0
   53.0790   35.4810  135.2840 C   0  0  0  0  0  6  0  0  0  0  0  0
   52.0190   35.1320  134.1970 C   0  0  0  0  0  6  0  0  0  0  0  0
   52.4940   34.3500  132.9890 C   0  0  0  0  0  0  0  0  0  0  0  0
   54.4310   35.0610  133.9550 H   0  0  0  0  0  3  0  0  0  0  0  0
   49.7250   38.8160  130.3340 H   0  0  0  0  0  0  0  0  0  0  0  0
   51.4550   32.0860  132.5460 H   0  0  0  0  0  2  0  0  0  0  0  0
   50.4170   32.4180  131.4010 H   0  0  0  0  0  0  0  0  0  0  0  0
   51.3090   31.2370  129.1450 H   0  0  0  0  0  0  0  0  0  0  0  0
   53.1980   31.9090  131.1810 H   0  0  0  0  0  0  0  0  0  0  0  0
   52.5240   32.9590  130.1300 H   0  0  0  0  0  0  0  0  0  0  0  0
   52.9060   28.4950  131.6880 H   0  0  0  0  0  0  0  0  0  0  0  0
   51.6590   27.8740  129.7710 H   0  0  0  0  0  0  0  0  0  0  0  0
   54.6730   36.3690  134.6440 H   0  0  0  0  0  0  0  0  0  0  0  0
   48.8460   36.4390  129.0370 H   0  0  0  0  0  0  0  0  0  0  0  0
   47.3840   38.0230  130.7020 H   0  0  0  0  0  0  0  0  0  0  0  0
   50.3530   42.8000  128.5330 H   0  0  0  0  0  0  0  0  0  0  0  0
   48.7090   35.3030  130.9000 H   0  0  0  0  0  0  0  0  0  0  0  0
   48.7280   37.5640  132.2700 H   0  0  0  0  0  0  0  0  0  0  0  0
   53.1300   30.0710  131.9960 H   0  0  0  0  0  0  0  0  0  0  0  0
   50.6350   36.3880  132.2450 H   0  0  0  0  0  0  0  0  0  0  0  0
   52.1230   35.1780  130.6090 H   0  0  0  0  0  2  0  0  0  0  0  0
   50.7690   34.4840  130.2270 H   0  0  0  0  0  0  0  0  0  0  0  0
   51.6730   40.8950  124.1850 H   0  0  0  0  0  0  0  0  0  0  0  0
   50.1420   40.9480  123.9730 H   0  0  0  0  0  0  0  0  0  0  0  0
   50.2590   36.6110  127.3220 H   0  0  0  0  0  0  0  0  0  0  0  0
   52.8860   36.3480  135.5950 H   0  0  0  0  0  0  0  0  0  0  0  0
   51.2940   34.6340  134.6270 H   0  0  0  0  0  2  0  0  0  0  0  0
   51.6610   35.9530  133.8740 H   0  0  0  0  0  2  0  0  0  0  0  0
   52.9250   33.5210  133.2740 Hg  0  0  0  0  0 11  0  0  0  0  0  0
   53.1080   34.8770  132.5060 Hg  0  0  0  0  0 11  0  0  0  0  0  0
   54.4090   35.5020  134.7620 N   0  0  0  0  0  5  0  0  0  0  0  0
   50.5740   42.0210  126.7150 N   0  0  0  0  0  2  0  0  0  0  0  0
   51.7900   31.0580  129.8820 N   0  0  0  0  0  0  0  0  0  0  0  0
   52.7680   29.3640  131.4550 N   0  0  0  0  0  0  0  0  0  0  0  0
   51.5240   28.7090  129.5400 N   0  0  0  0  0  2  0  0  0  0  0  0
   50.2450   40.8070  128.7040 N   0  0  0  0  0  2  0  0  0  0  0  0
   50.8370   40.9110  124.5200 N   0  0  0  0  0  0  0  0  0  0  0  0
   50.4850   38.3600  126.2350 N   0  0  0  0  0  2  0  0  0  0  0  0
   50.1640   38.3550  128.4150 N   0  0  0  0  0  0  0  0  0  0  0  0
   51.3490   34.0420  132.1330 N   0  0  0  0  0  5  0  0  0  0  0  0
   53.9570   33.8030  136.7540 O   0  0  0  0  0  1  0  0  0  0  0  0
   47.5280   37.6770  129.8610 O   0  0  0  0  0  0  0  0  0  0  0  0
   48.3770   36.8000  132.1110 O   0  0  0  0  0  0  0  0  0  0  0  0
   51.0590   37.3310  130.5490 O   0  0  0  0  0  0  0  0  0  0  0  0
   51.9130   34.5320  137.1730 O   0  0  0  0  0  1  0  0  0  0  0  0
  1 15  1  0
  1 55  1  0
  1 59  1  0
  2  7  1  0
  2 19  1  0
  2 53  1  0
  2 58  1  0
  3  4  1  0
  3 20  1  0
  3 21  1  0
  3 43  1  0
  3 44  1  0
  3 54  1  0
  4 23  1  0
  4 24  1  0
  4 43  1  0
  4 47  1  0
  5 47  1  0
  5 48  1  0
  5 49  1  0
  6 30  1  0
  6 46  1  0
  6 50  1  0
  7  8  1  0
  7 28  1  0
  7 56  1  0
  8 10  1  0
  8 31  1  0
  8 57  1  0
  9 11  1  0
  9 50  1  0
  9 53  1  0
 10 12  1  0
 10 34  1  0
 10 58  1  0
 11 13  1  0
 11 52  1  0
 12 35  1  0
 12 36  1  0
 12 44  1  0
 12 54  1  0
 13 46  1  0
 13 51  1  0
 14 39  1  0
 14 52  1  0
 14 53  1  0
 15 16  1  0
 15 40  1  0
 15 43  1  0
 15 44  1  0
 15 45  1  0
 16 17  1  0
 16 41  1  0
 16 42  1  0
 16 43  1  0
 16 44  1  0
 17 43  1  0
 17 44  1  0
 17 54  1  0
 18 43  1  0
 18 44  1  0
 18 45  1  0
 20 43  1  0
 22 47  1  0
 25 48  1  0
 26 49  1  0
 27 45  1  0
 29 56  1  0
 32 57  1  0
 33 48  1  0
 35 44  1  0
 37 51  1  0
 38 51  1  0
 41 43  1  0
 42 44  1  0
 43 44  1  0
 43 45  1  0
 43 54  1  0
 44 45  1  0
 44 54  1  0
M  END
$$$$
