5lv2_B_LHB_501
     RDKit          3D

 54 57  0  0  0  0  0  0  0  0999 V2000
    1.7330   15.3030   11.6680 C   0  0  0  0  0  3  0  0  0  0  0  0
   -4.9810   12.8940   15.1340 C   0  0  0  0  0  0  0  0  0  0  0  0
   -4.4040   13.6950   17.3640 C   0  0  0  0  0  0  0  0  0  0  0  0
   -5.4390   13.0390   18.3660 C   0  0  0  0  0  3  0  0  0  0  0  0
   -6.8440   12.7860   18.1030 C   0  0  0  0  0  3  0  0  0  0  0  0
   -7.1580   11.7940   20.2020 C   0  0  0  0  0  3  0  0  0  0  0  0
   -5.0080   12.6500   19.5830 C   0  0  0  0  0  3  0  0  0  0  0  0
   -5.2820   11.7170   21.8290 C   0  0  0  0  0  0  0  0  0  0  0  0
   -5.6940   10.2140   23.5960 C   0  0  0  0  0  0  0  0  0  0  0  0
    0.8540   14.5610   12.4780 C   0  0  0  0  0  3  0  0  0  0  0  0
   -0.3070   14.0930   11.8810 C   0  0  0  0  0  3  0  0  0  0  0  0
    0.2350   14.9760    9.9360 C   0  0  0  0  0  3  0  0  0  0  0  0
   -0.2070   13.5130   13.9870 C   0  0  0  0  0  3  0  0  0  0  0  0
   -2.3020   12.8020   12.7510 C   0  0  0  0  0  0  0  0  0  0  0  0
   -4.3200   12.6010   13.8010 C   0  0  0  0  0  0  0  0  0  0  0  0
   -3.7950   11.1660   13.6770 C   0  0  0  0  0  0  0  0  0  0  0  0
   -2.3540   11.3310   13.1590 C   0  0  0  0  0  0  0  0  0  0  0  0
    0.0310   15.1710    8.8840 H   0  0  0  0  0  0  0  0  0  0  0  0
   -5.3630   13.9140   15.1250 H   0  0  0  0  0  0  0  0  0  0  0  0
   -3.0640   12.8870   15.9750 H   0  0  0  0  0  0  0  0  0  0  0  0
   -4.7870   14.6620   17.0410 H   0  0  0  0  0  0  0  0  0  0  0  0
   -3.4860   13.9590   17.8860 H   0  0  0  0  0  0  0  0  0  0  0  0
    3.4770   16.3600   11.4770 H   0  0  0  0  0  0  0  0  0  0  0  0
    3.1800   15.7240   13.0680 H   0  0  0  0  0  0  0  0  0  0  0  0
   -3.9700   12.8100   19.8700 H   0  0  0  0  0  0  0  0  0  0  0  0
   -8.3720   13.0270   16.7540 H   0  0  0  0  0  0  0  0  0  0  0  0
   -6.8620   13.6850   16.2400 H   0  0  0  0  0  0  0  0  0  0  0  0
   -5.7440   12.3690   22.5700 H   0  0  0  0  0  0  0  0  0  0  0  0
   -0.4930   13.0610   14.9350 H   0  0  0  0  0  0  0  0  0  0  0  0
   -4.2200   11.9570   21.8450 H   0  0  0  0  0  0  0  0  0  0  0  0
   -5.0080   10.8560   24.1470 H   0  0  0  0  0  0  0  0  0  0  0  0
   -5.4130    9.1730   23.7480 H   0  0  0  0  0  0  0  0  0  0  0  0
   -6.7010   10.3670   23.9800 H   0  0  0  0  0  0  0  0  0  0  0  0
   -2.6640   12.9670   11.7370 H   0  0  0  0  0  0  0  0  0  0  0  0
   -4.9780   12.8800   12.9800 H   0  0  0  0  0  0  0  0  0  0  0  0
   -3.7920   10.6500   14.6360 H   0  0  0  0  0  0  0  0  0  0  0  0
   -1.6180   11.0770   13.9210 H   0  0  0  0  0  0  0  0  0  0  0  0
   -1.4360    9.8100   12.2670 H   0  0  0  0  0  0  0  0  0  0  0  0
   -5.3420   10.0350   13.2870 H   0  0  0  0  0  0  0  0  0  0  0  0
   -5.8660   12.2710   15.2500 H   0  0  0  0  0  0  0  0  0  0  0  0
   -0.6760   14.2660   10.6070 N   0  0  0  0  0  2  0  0  0  0  0  0
    1.3850   15.4930   10.3760 N   0  0  0  0  0  2  0  0  0  0  0  0
   -0.9910   13.4250   12.8650 N   0  0  0  0  0  0  0  0  0  0  0  0
    0.9060   14.1840   13.8110 N   0  0  0  0  0  2  0  0  0  0  0  0
   -4.0370   12.8070   16.2530 N   0  0  0  0  0  0  0  0  0  0  0  0
    2.8790   15.8330   12.1050 N   0  0  0  0  0  0  0  0  0  0  0  0
   -7.6370   12.1860   18.9950 N   0  0  0  0  0  2  0  0  0  0  0  0
   -5.8220   12.0490   20.5050 N   0  0  0  0  0  0  0  0  0  0  0  0
   -7.3910   13.1950   16.9540 N   0  0  0  0  0  0  0  0  0  0  0  0
   -3.1820   13.4630   13.6270 O   0  0  0  0  0  0  0  0  0  0  0  0
   -2.1100   10.4990   12.0300 O   0  0  0  0  0  0  0  0  0  0  0  0
   -4.6010   10.4350   12.7610 O   0  0  0  0  0  0  0  0  0  0  0  0
   -5.5580   10.3950   22.1980 O   0  0  0  0  0  0  0  0  0  0  0  0
   -7.8520   11.1980   21.0260 O   0  0  0  0  0  1  0  0  0  0  0  0
  1 10  1  0
  1 42  1  0
  1 46  1  0
  2 15  1  0
  2 19  1  0
  2 40  1  0
  2 45  1  0
  3  4  1  0
  3 21  1  0
  3 22  1  0
  3 45  1  0
  4  5  1  0
  4  7  1  0
  5 47  1  0
  5 49  1  0
  6 47  1  0
  6 48  1  0
  6 54  1  0
  7 25  1  0
  7 48  1  0
  8 28  1  0
  8 30  1  0
  8 48  1  0
  8 53  1  0
  9 31  1  0
  9 32  1  0
  9 33  1  0
  9 53  1  0
 10 11  1  0
 10 44  1  0
 11 41  1  0
 11 43  1  0
 12 18  1  0
 12 41  1  0
 12 42  1  0
 13 29  1  0
 13 43  1  0
 13 44  1  0
 14 17  1  0
 14 34  1  0
 14 43  1  0
 14 50  1  0
 15 16  1  0
 15 35  1  0
 15 50  1  0
 16 17  1  0
 16 36  1  0
 16 52  1  0
 17 37  1  0
 17 51  1  0
 20 45  1  0
 23 46  1  0
 24 46  1  0
 26 49  1  0
 27 49  1  0
 38 51  1  0
 39 52  1  0
M  END
$$$$
