5lv2_G_SAO_501
     RDKit          3D

 46 62  0  0  0  0  0  0  0  0999 V2000
  -61.0030   12.1550   32.4710 C   0  0  0  0  0  0  0  0  0  0  0  0
  -64.1940    8.1440   25.9770 C   0  0  0  0  0  0  0  0  0  0  0  0
  -68.1620    8.5880   24.2070 C   0  0  0  0  0  3  0  0  0  0  0  0
  -63.1630    7.0390   26.1720 C   0  0  0  0  0  0  0  0  0  0  0  0
  -62.4190    7.5210   27.4260 C   0  0  0  0  0  0  0  0  0  0  0  0
  -65.9640    8.4320   24.1880 C   0  0  0  0  0  3  0  0  0  0  0  0
  -62.5840    9.0480   27.3900 C   0  0  0  0  0  0  0  0  0  0  0  0
  -65.9080    8.6140   22.8160 C   0  0  0  0  0  3  0  0  0  0  0  0
  -61.3020    9.8000   27.0850 C   0  0  0  0  0  5  0  0  0  0  0  0
  -67.1310    8.8000   22.1480 C   0  0  0  0  0  3  0  0  0  0  0  0
  -63.9010    8.3940   23.4670 C   0  0  0  0  0  3  0  0  0  0  0  0
  -62.1500   11.4030   31.7870 C   0  0  0  0  0  6  0  0  0  0  0  0
  -61.6340   10.4530   30.7010 C   0  0  0  0  0  6  0  0  0  0  0  0
  -60.8940   11.1530   29.5630 C   0  0  0  0  0  0  0  0  0  0  0  0
  -65.0770    8.0290   26.6050 H   0  0  0  0  0  0  0  0  0  0  0  0
  -69.1100    8.5800   24.7420 H   0  0  0  0  0  0  0  0  0  0  0  0
  -62.5150    6.8480   25.3180 H   0  0  0  0  0  0  0  0  0  0  0  0
  -63.5200   12.9890   31.9320 H   0  0  0  0  0  0  0  0  0  0  0  0
  -61.3930    7.1620   27.4900 H   0  0  0  0  0  0  0  0  0  0  0  0
  -63.0340    9.4470   28.2980 H   0  0  0  0  0  0  0  0  0  0  0  0
  -61.4900   10.8320   26.7920 H   0  0  0  0  0  2  0  0  0  0  0  0
  -60.7720    9.3560   26.2440 H   0  0  0  0  0  0  0  0  0  0  0  0
  -62.8150    8.3180   23.4770 H   0  0  0  0  0  0  0  0  0  0  0  0
  -62.6540   10.8230   32.5590 H   0  0  0  0  0  0  0  0  0  0  0  0
  -62.4940    9.9200   30.2970 H   0  0  0  0  0  2  0  0  0  0  0  0
  -61.0210    9.6640   31.1350 H   0  0  0  0  0  0  0  0  0  0  0  0
  -60.0790   11.7910   29.9000 Hg  0  0  0  0  0  7  0  0  0  0  0  0
  -61.5520   11.7860   28.9680 Hg  0  0  0  0  0 10  0  0  0  0  0  0
  -63.8710   11.9570   30.6970 H   0  0  0  0  0  0  0  0  0  0  0  0
  -62.5500   12.9440   30.5900 H   0  0  0  0  0  2  0  0  0  0  0  0
  -66.4040    9.0240   20.2500 H   0  0  0  0  0  0  0  0  0  0  0  0
  -68.1380    9.1310   20.3840 H   0  0  0  0  0  0  0  0  0  0  0  0
  -64.7700    5.8560   26.0970 H   0  0  0  0  0  0  0  0  0  0  0  0
  -63.8960    7.3790   28.7370 H   0  0  0  0  0  0  0  0  0  0  0  0
  -63.1160   12.3870   31.2220 N   0  0  0  0  0  5  0  0  0  0  0  0
  -68.2610    8.7830   22.8900 N   0  0  0  0  0  2  0  0  0  0  0  0
  -67.0650    8.4040   24.9490 N   0  0  0  0  0  2  0  0  0  0  0  0
  -67.2360    9.0000   20.8300 N   0  0  0  0  0  0  0  0  0  0  0  0
  -64.5950    8.5840   22.3710 N   0  0  0  0  0  2  0  0  0  0  0  0
  -64.6630    8.3000   24.6030 N   0  0  0  0  0  0  0  0  0  0  0  0
  -60.9330   13.3880   32.2640 O   0  0  0  0  0  0  0  0  0  0  0  0
  -63.8240    5.7970   26.3940 O   0  0  0  0  0  0  0  0  0  0  0  0
  -62.9960    6.9800   28.6080 O   0  0  0  0  0  0  0  0  0  0  0  0
  -63.5510    9.3390   26.3600 O   0  0  0  0  0  0  0  0  0  0  0  0
  -60.2090   11.4850   33.1690 O   0  0  0  0  0  1  0  0  0  0  0  0
  -60.2270    9.8010   28.5460 S   0  0  0  0  0  4  0  0  0  0  0  0
  1 12  1  0
  1 27  1  0
  1 41  1  0
  1 45  1  0
  2  4  1  0
  2 15  1  0
  2 40  1  0
  2 44  1  0
  3 16  1  0
  3 36  1  0
  3 37  1  0
  4  5  1  0
  4 17  1  0
  4 42  1  0
  5  7  1  0
  5 19  1  0
  5 43  1  0
  6  8  1  0
  6 37  1  0
  6 40  1  0
  7  9  1  0
  7 20  1  0
  7 44  1  0
  8 10  1  0
  8 39  1  0
  9 21  1  0
  9 22  1  0
  9 28  1  0
  9 46  1  0
 10 36  1  0
 10 38  1  0
 11 23  1  0
 11 39  1  0
 11 40  1  0
 12 13  1  0
 12 24  1  0
 12 27  1  0
 12 28  1  0
 12 35  1  0
 13 14  1  0
 13 25  1  0
 13 26  1  0
 13 27  1  0
 13 28  1  0
 14 27  1  0
 14 28  1  0
 14 46  1  0
 18 35  1  0
 21 28  1  0
 25 28  1  0
 27 28  1  0
 27 41  1  0
 27 46  1  0
 28 30  1  0
 28 35  1  0
 28 46  1  0
 29 35  1  0
 30 35  1  0
 31 38  1  0
 32 38  1  0
 33 42  1  0
 34 43  1  0
M  END
$$$$
