5lv3_C_LHF_501
     RDKit          3D

 67 71  0  0  0  0  0  0  0  0999 V2000
   32.6150   30.9600  187.3050 Br  0  0  0  0  0  0  0  0  0  0  0  0
   27.2320   39.2000  181.8960 C   0  0  0  0  0  0  0  0  0  0  0  0
   26.9910   43.2080  183.6620 C   0  0  0  0  0  3  0  0  0  0  0  0
   28.3870   38.2300  181.6860 C   0  0  0  0  0  0  0  0  0  0  0  0
   27.9430   37.6100  180.3640 C   0  0  0  0  0  0  0  0  0  0  0  0
   23.6430   33.1260  181.2920 C   0  0  0  0  0  0  0  0  0  0  0  0
   26.1200   29.8000  179.9730 C   0  0  0  0  0  3  0  0  0  0  0  0
   24.9790   30.9830  181.7160 C   0  0  0  0  0  3  0  0  0  0  0  0
   24.4590   31.8790  180.8530 C   0  0  0  0  0  3  0  0  0  0  0  0
   27.0150   41.0020  183.6770 C   0  0  0  0  0  3  0  0  0  0  0  0
   26.4430   37.4160  180.5970 C   0  0  0  0  0  0  0  0  0  0  0  0
   24.7750   31.6490  179.4700 C   0  0  0  0  0  3  0  0  0  0  0  0
   26.3850   29.0520  182.3200 C   0  0  0  0  0  0  0  0  0  0  0  0
   26.8340   40.9580  185.0470 C   0  0  0  0  0  3  0  0  0  0  0  0
   26.0900   36.0270  181.0960 C   0  0  0  0  0  0  0  0  0  0  0  0
   27.6800   29.5700  182.8790 C   0  0  0  0  0  0  0  0  0  0  0  0
   31.2060   30.2400  186.2550 C   0  0  0  0  0  3  0  0  0  0  0  0
   30.9420   30.7870  185.0180 C   0  0  0  0  0  3  0  0  0  0  0  0
   29.8850   30.2980  184.2770 C   0  0  0  0  0  3  0  0  0  0  0  0
   29.0990   29.2760  184.7860 C   0  0  0  0  0  3  0  0  0  0  0  0
   29.3920   28.7150  186.0180 C   0  0  0  0  0  3  0  0  0  0  0  0
   30.4510   29.2020  186.7610 C   0  0  0  0  0  3  0  0  0  0  0  0
   26.7220   42.1910  185.7190 C   0  0  0  0  0  3  0  0  0  0  0  0
   24.7650   35.3790  180.7420 C   0  0  0  0  0  0  0  0  0  0  0  0
   26.9480   38.9410  184.4000 C   0  0  0  0  0  3  0  0  0  0  0  0
   27.3150   40.0670  181.2430 H   0  0  0  0  0  0  0  0  0  0  0  0
   27.0560   44.1570  183.1320 H   0  0  0  0  0  0  0  0  0  0  0  0
   28.4170   37.4590  182.4540 H   0  0  0  0  0  0  0  0  0  0  0  0
   29.1240   38.1560  178.9060 H   0  0  0  0  0  0  0  0  0  0  0  0
   28.4400   36.6550  180.1950 H   0  0  0  0  0  0  0  0  0  0  0  0
   24.3560   34.5750  182.5900 H   0  0  0  0  0  0  0  0  0  0  0  0
   22.9920   33.4310  180.4740 H   0  0  0  0  0  0  0  0  0  0  0  0
   22.9610   32.8470  182.0950 H   0  0  0  0  0  0  0  0  0  0  0  0
   25.8670   37.6520  179.7040 H   0  0  0  0  0  0  0  0  0  0  0  0
   23.6780   33.2410  178.7960 H   0  0  0  0  0  0  0  0  0  0  0  0
   24.4680   32.3450  177.5440 H   0  0  0  0  0  0  0  0  0  0  0  0
   24.7550   31.0470  182.7800 H   0  0  0  0  0  0  0  0  0  0  0  0
   26.5050   28.0530  181.9050 H   0  0  0  0  0  0  0  0  0  0  0  0
   25.6710   28.9330  183.1340 H   0  0  0  0  0  0  0  0  0  0  0  0
   26.1940   36.0370  182.1800 H   0  0  0  0  0  0  0  0  0  0  0  0
   26.8940   35.3540  180.7980 H   0  0  0  0  0  0  0  0  0  0  0  0
   27.5740   30.6380  183.0640 H   0  0  0  0  0  0  0  0  0  0  0  0
   28.4920   29.4520  182.1630 H   0  0  0  0  0  0  0  0  0  0  0  0
   31.5610   31.5960  184.6300 H   0  0  0  0  0  0  0  0  0  0  0  0
   29.6670   30.7120  183.2940 H   0  0  0  0  0  0  0  0  0  0  0  0
   28.8310   27.8910  186.4580 H   0  0  0  0  0  0  0  0  0  0  0  0
   30.6860   28.7710  187.7330 H   0  0  0  0  0  0  0  0  0  0  0  0
   23.9710   36.1240  180.7600 H   0  0  0  0  0  0  0  0  0  0  0  0
   24.7950   35.0150  179.7160 H   0  0  0  0  0  0  0  0  0  0  0  0
   26.9670   37.8520  184.3970 H   0  0  0  0  0  0  0  0  0  0  0  0
   26.4350   41.5020  187.6390 H   0  0  0  0  0  0  0  0  0  0  0  0
   26.4490   43.2320  187.4570 H   0  0  0  0  0  0  0  0  0  0  0  0
   29.4880   39.8500  181.5780 H   0  0  0  0  0  0  0  0  0  0  0  0
   26.8090   43.3180  184.9800 N   0  0  0  0  0  2  0  0  0  0  0  0
   27.1010   42.1010  182.9190 N   0  0  0  0  0  2  0  0  0  0  0  0
   24.5090   34.2470  181.6420 N   0  0  0  0  0  0  0  0  0  0  0  0
   25.8010   29.9600  181.3210 N   0  0  0  0  0  0  0  0  0  0  0  0
   25.5670   30.6480  179.0730 N   0  0  0  0  0  2  0  0  0  0  0  0
   24.2760   32.4640  178.5330 N   0  0  0  0  0  0  0  0  0  0  0  0
   26.5210   42.3120  187.0340 N   0  0  0  0  0  0  0  0  0  0  0  0
   26.7950   39.6430  185.4980 N   0  0  0  0  0  2  0  0  0  0  0  0
   27.0800   39.6910  183.2650 N   0  0  0  0  0  0  0  0  0  0  0  0
   29.6550   38.8710  181.6040 O   0  0  0  0  0  0  0  0  0  0  0  0
   28.2430   38.4490  179.2580 O   0  0  0  0  0  0  0  0  0  0  0  0
   26.0730   38.4690  181.5270 O   0  0  0  0  0  0  0  0  0  0  0  0
   26.9440   28.9440  179.6500 O   0  0  0  0  0  1  0  0  0  0  0  0
   27.9690   28.8940  184.1100 O   0  0  0  0  0  0  0  0  0  0  0  0
  1 17  1  0
  2  4  1  0
  2 26  1  0
  2 62  1  0
  2 65  1  0
  3 27  1  0
  3 54  1  0
  3 55  1  0
  4  5  1  0
  4 28  1  0
  4 63  1  0
  5 11  1  0
  5 30  1  0
  5 64  1  0
  6  9  1  0
  6 32  1  0
  6 33  1  0
  6 56  1  0
  7 57  1  0
  7 58  1  0
  7 66  1  0
  8  9  1  0
  8 37  1  0
  8 57  1  0
  9 12  1  0
 10 14  1  0
 10 55  1  0
 10 62  1  0
 11 15  1  0
 11 34  1  0
 11 65  1  0
 12 58  1  0
 12 59  1  0
 13 16  1  0
 13 38  1  0
 13 39  1  0
 13 57  1  0
 14 23  1  0
 14 61  1  0
 15 24  1  0
 15 40  1  0
 15 41  1  0
 16 42  1  0
 16 43  1  0
 16 67  1  0
 17 18  1  0
 17 22  1  0
 18 19  1  0
 18 44  1  0
 19 20  1  0
 19 45  1  0
 20 21  1  0
 20 67  1  0
 21 22  1  0
 21 46  1  0
 22 47  1  0
 23 54  1  0
 23 60  1  0
 24 48  1  0
 24 49  1  0
 24 56  1  0
 25 50  1  0
 25 61  1  0
 25 62  1  0
 29 64  1  0
 31 56  1  0
 35 59  1  0
 36 59  1  0
 51 60  1  0
 52 60  1  0
 53 63  1  0
M  END
$$$$
