5ntc_B_6L7_507
     RDKit          3D

 57 59  0  0  0  0  0  0  0  0999 V2000
   23.4270   25.3830  115.2830 C   0  0  0  0  0  3  0  0  0  0  0  0
   24.2470   21.0990  118.6130 C   0  0  0  0  0  0  0  0  0  0  0  0
   24.3240   19.4870  120.5990 C   0  0  0  0  0  0  0  0  0  0  0  0
   25.3990   20.3110  121.2930 C   0  0  0  0  0  0  0  0  0  0  0  0
   24.1760   18.5210  118.2720 C   0  0  0  0  0  0  0  0  0  0  0  0
   22.8600   17.8370  117.9560 C   0  0  0  0  0  0  0  0  0  0  0  0
   22.8760   16.6400  117.0030 C   0  0  0  0  0  0  0  0  0  0  0  0
   23.0040   15.3330  117.7920 C   0  0  0  0  0  3  0  0  0  0  0  0
   22.8790   26.4580  115.9720 C   0  0  0  0  0  3  0  0  0  0  0  0
   22.2180   27.4340  115.1960 C   0  0  0  0  0  3  0  0  0  0  0  0
   22.7420   26.1590  113.3410 C   0  0  0  0  0  3  0  0  0  0  0  0
   23.7640   25.2130  117.4410 C   0  0  0  0  0  3  0  0  0  0  0  0
   24.6670   23.3030  116.0510 C   0  0  0  0  0  0  0  0  0  0  0  0
   26.0120   23.1850  116.7650 C   0  0  0  0  0  0  0  0  0  0  0  0
   26.1080   21.6730  116.9930 C   0  0  0  0  0  0  0  0  0  0  0  0
   24.6480   21.2450  117.1640 C   0  0  0  0  0  0  0  0  0  0  0  0
   25.0150   21.5820  119.2170 H   0  0  0  0  0  0  0  0  0  0  0  0
   23.3850   21.7420  118.7890 H   0  0  0  0  0  0  0  0  0  0  0  0
   24.5660   18.4390  120.7730 H   0  0  0  0  0  0  0  0  0  0  0  0
   23.3910   19.6280  121.1430 H   0  0  0  0  0  0  0  0  0  0  0  0
   26.3970   19.9840  121.0040 H   0  0  0  0  0  0  0  0  0  0  0  0
   25.3560   21.3680  121.0340 H   0  0  0  0  0  0  0  0  0  0  0  0
   24.6780   18.7780  117.3410 H   0  0  0  0  0  0  0  0  0  0  0  0
   24.8640   17.8080  118.7250 H   0  0  0  0  0  0  0  0  0  0  0  0
   22.1910   18.5930  117.5480 H   0  0  0  0  0  0  0  0  0  0  0  0
   22.3520   17.5350  118.8710 H   0  0  0  0  0  0  0  0  0  0  0  0
   23.7040   16.7210  116.3000 H   0  0  0  0  0  0  0  0  0  0  0  0
   22.6640   26.0760  112.2580 H   0  0  0  0  0  0  0  0  0  0  0  0
   24.1020   24.8130  118.3960 H   0  0  0  0  0  0  0  0  0  0  0  0
   24.7270   23.1170  114.9800 H   0  0  0  0  0  0  0  0  0  0  0  0
   26.1180   23.7900  117.6640 H   0  0  0  0  0  0  0  0  0  0  0  0
   26.7610   21.4120  117.8240 H   0  0  0  0  0  0  0  0  0  0  0  0
   24.4200   20.3390  116.6050 H   0  0  0  0  0  0  0  0  0  0  0  0
   21.6650   28.6880  116.7160 H   0  0  0  0  0  0  0  0  0  0  0  0
   21.1750   29.2060  115.1240 H   0  0  0  0  0  0  0  0  0  0  0  0
   22.9500   19.7290  119.2110 H   0  0  0  0  0  0  0  0  0  0  0  0
   25.9700   20.6400  123.2750 H   0  0  0  0  0  0  0  0  0  0  0  0
   24.3350   20.6100  123.0750 H   0  0  0  0  0  0  0  0  0  0  0  0
   25.1990   19.2330  123.0590 H   0  0  0  0  0  0  0  0  0  0  0  0
   21.3420   17.5710  115.9910 H   0  0  0  0  0  0  0  0  0  0  0  0
   20.8680   16.2240  116.7810 H   0  0  0  0  0  0  0  0  0  0  0  0
   21.6980   16.0900  115.3530 H   0  0  0  0  0  0  0  0  0  0  0  0
   26.0770   20.8920  115.1610 H   0  0  0  0  0  0  0  0  0  0  0  0
   26.8850   23.3720  114.9980 H   0  0  0  0  0  0  0  0  0  0  0  0
   23.0970   26.3380  117.3310 N   0  0  0  0  0  2  0  0  0  0  0  0
   23.9950   24.5860  116.2480 N   0  0  0  0  0  0  0  0  0  0  0  0
   22.1670   27.2470  113.8600 N   0  0  0  0  0  2  0  0  0  0  0  0
   23.3930   25.1720  113.9670 N   0  0  0  0  0  2  0  0  0  0  0  0
   21.6420   28.5250  115.7140 N   0  0  0  0  0  0  0  0  0  0  0  0
   23.9630   19.7270  119.1520 N   0  0  0  0  0  4  0  0  0  0  0  0
   25.2110   20.2030  122.7620 N   0  0  0  0  0  4  0  0  0  0  0  0
   21.6130   16.6190  116.2150 N   0  0  0  0  0  4  0  0  0  0  0  0
   23.8410   22.3020  116.6040 O   0  0  0  0  0  0  0  0  0  0  0  0
   26.7260   20.9970  115.9050 O   0  0  0  0  0  0  0  0  0  0  0  0
   27.0660   23.6550  115.9320 O   0  0  0  0  0  0  0  0  0  0  0  0
   24.0470   14.6590  117.6310 O   0  0  0  0  0  1  0  0  0  0  0  0
   22.0510   15.0360  118.5480 O   0  0  0  0  0  1  0  0  0  0  0  0
  1  9  1  0
  1 46  1  0
  1 48  1  0
  2 16  1  0
  2 17  1  0
  2 18  1  0
  2 50  1  0
  3  4  1  0
  3 19  1  0
  3 20  1  0
  3 50  1  0
  4 21  1  0
  4 22  1  0
  4 51  1  0
  5  6  1  0
  5 23  1  0
  5 24  1  0
  5 50  1  0
  6  7  1  0
  6 25  1  0
  6 26  1  0
  7  8  1  0
  7 27  1  0
  7 52  1  0
  8 56  1  0
  8 57  1  0
  9 10  1  0
  9 45  1  0
 10 47  1  0
 10 49  1  0
 11 28  1  0
 11 47  1  0
 11 48  1  0
 12 29  1  0
 12 45  1  0
 12 46  1  0
 13 14  1  0
 13 30  1  0
 13 46  1  0
 13 53  1  0
 14 15  1  0
 14 31  1  0
 14 55  1  0
 15 16  1  0
 15 32  1  0
 15 54  1  0
 16 33  1  0
 16 53  1  0
 34 49  1  0
 35 49  1  0
 36 50  1  0
 37 51  1  0
 38 51  1  0
 39 51  1  0
 40 52  1  0
 41 52  1  0
 42 52  1  0
 43 54  1  0
 44 55  1  0
M  END
$$$$
