5tbh_C_SAO_506
     RDKit          3D

 46 62  0  0  0  0  0  0  0  0999 V2000
   23.2130   36.3090  173.9210 C   0  0  0  0  0  0  0  0  0  0  0  0
   27.3050   39.5270  180.4200 C   0  0  0  0  0  0  0  0  0  0  0  0
   26.8350   43.4830  182.2030 C   0  0  0  0  0  3  0  0  0  0  0  0
   28.3890   38.4740  180.2250 C   0  0  0  0  0  0  0  0  0  0  0  0
   27.9170   37.7870  178.9360 C   0  0  0  0  0  0  0  0  0  0  0  0
   26.9710   41.2890  182.2090 C   0  0  0  0  0  3  0  0  0  0  0  0
   26.3920   37.9650  178.9630 C   0  0  0  0  0  0  0  0  0  0  0  0
   26.7640   41.2180  183.5780 C   0  0  0  0  0  3  0  0  0  0  0  0
   25.6030   36.7050  179.2670 C   0  0  0  0  0  5  0  0  0  0  0  0
   26.5780   42.4430  184.2530 C   0  0  0  0  0  3  0  0  0  0  0  0
   27.0110   39.2190  182.9220 C   0  0  0  0  0  3  0  0  0  0  0  0
   23.9650   37.4390  174.6340 C   0  0  0  0  0  6  0  0  0  0  0  0
   24.9240   36.8950  175.6960 C   0  0  0  0  0  6  0  0  0  0  0  0
   24.2360   36.1380  176.8270 C   0  0  0  0  0  0  0  0  0  0  0  0
   27.4500   40.4150  179.8060 H   0  0  0  0  0  0  0  0  0  0  0  0
   26.8670   44.4360  181.6760 H   0  0  0  0  0  0  0  0  0  0  0  0
   28.5350   37.7930  181.0630 H   0  0  0  0  0  0  0  0  0  0  0  0
   22.6200   39.0510  174.5690 H   0  0  0  0  0  0  0  0  0  0  0  0
   28.2680   36.7610  178.8330 H   0  0  0  0  0  0  0  0  0  0  0  0
   26.0030   38.4330  178.0600 H   0  0  0  0  0  0  0  0  0  0  0  0
   24.5650   36.9260  179.5130 H   0  0  0  0  0  2  0  0  0  0  0  0
   25.9980   36.1960  180.1450 H   0  0  0  0  0  0  0  0  0  0  0  0
   27.0960   38.1330  182.9090 H   0  0  0  0  0  0  0  0  0  0  0  0
   24.5360   37.9680  173.8730 H   0  0  0  0  0  0  0  0  0  0  0  0
   25.4680   37.7420  176.1100 H   0  0  0  0  0  2  0  0  0  0  0  0
   25.7020   36.2850  175.2390 H   0  0  0  0  0  0  0  0  0  0  0  0
   23.6510   35.2830  176.4920 Hg  0  0  0  0  0  7  0  0  0  0  0  0
   23.5620   36.7680  177.4050 Hg  0  0  0  0  0 10  0  0  0  0  0  0
   23.3570   38.8970  176.0340 H   0  0  0  0  0  0  0  0  0  0  0  0
   22.2350   37.7800  175.5590 H   0  0  0  0  0  2  0  0  0  0  0  0
   26.3370   41.7020  186.1420 H   0  0  0  0  0  0  0  0  0  0  0  0
   26.2390   43.4380  186.0200 H   0  0  0  0  0  0  0  0  0  0  0  0
   29.7520   39.4410  179.1310 H   0  0  0  0  0  0  0  0  0  0  0  0
   28.0800   39.3170  177.6910 H   0  0  0  0  0  0  0  0  0  0  0  0
   22.9860   38.3840  175.2410 N   0  0  0  0  0  5  0  0  0  0  0  0
   26.6200   43.5750  183.5200 N   0  0  0  0  0  2  0  0  0  0  0  0
   27.0150   42.3910  181.4570 N   0  0  0  0  0  2  0  0  0  0  0  0
   26.3690   42.5390  185.5680 N   0  0  0  0  0  0  0  0  0  0  0  0
   26.7910   39.9080  184.0190 N   0  0  0  0  0  2  0  0  0  0  0  0
   27.1250   39.9850  181.7950 N   0  0  0  0  0  0  0  0  0  0  0  0
   23.8760   35.5560  173.1730 O   0  0  0  0  0  1  0  0  0  0  0  0
   29.6600   39.0980  180.0580 O   0  0  0  0  0  0  0  0  0  0  0  0
   28.4710   38.4090  177.7830 O   0  0  0  0  0  0  0  0  0  0  0  0
   26.1050   38.9160  180.0080 O   0  0  0  0  0  0  0  0  0  0  0  0
   21.9810   36.2240  174.1370 O   0  0  0  0  0  0  0  0  0  0  0  0
   25.6220   35.5680  177.8560 S   0  0  0  0  0  4  0  0  0  0  0  0
  1 12  1  0
  1 27  1  0
  1 41  1  0
  1 45  1  0
  2  4  1  0
  2 15  1  0
  2 40  1  0
  2 44  1  0
  3 16  1  0
  3 36  1  0
  3 37  1  0
  4  5  1  0
  4 17  1  0
  4 42  1  0
  5  7  1  0
  5 19  1  0
  5 43  1  0
  6  8  1  0
  6 37  1  0
  6 40  1  0
  7  9  1  0
  7 20  1  0
  7 44  1  0
  8 10  1  0
  8 39  1  0
  9 21  1  0
  9 22  1  0
  9 28  1  0
  9 46  1  0
 10 36  1  0
 10 38  1  0
 11 23  1  0
 11 39  1  0
 11 40  1  0
 12 13  1  0
 12 24  1  0
 12 27  1  0
 12 28  1  0
 12 35  1  0
 13 14  1  0
 13 25  1  0
 13 26  1  0
 13 27  1  0
 13 28  1  0
 14 27  1  0
 14 28  1  0
 14 46  1  0
 18 35  1  0
 21 28  1  0
 25 28  1  0
 27 28  1  0
 27 45  1  0
 27 46  1  0
 28 30  1  0
 28 35  1  0
 28 46  1  0
 29 35  1  0
 30 35  1  0
 31 38  1  0
 32 38  1  0
 33 42  1  0
 34 43  1  0
M  END
$$$$
