5tbj_A_LHD_501
     RDKit          3D

 58 61  0  0  0  0  0  0  0  0999 V2000
   50.8410   41.2690  126.1390 C   0  0  0  0  0  3  0  0  0  0  0  0
   53.3100   31.8540  131.3050 C   0  0  0  0  0  0  0  0  0  0  0  0
   52.2040   30.8700  131.5020 C   0  0  0  0  0  3  0  0  0  0  0  0
   51.3230   30.8770  132.6410 C   0  0  0  0  0  3  0  0  0  0  0  0
   50.0810   29.0690  131.8160 C   0  0  0  0  0  3  0  0  0  0  0  0
   51.9480   29.9220  130.5820 C   0  0  0  0  0  3  0  0  0  0  0  0
   50.7230   28.0860  129.5910 C   0  0  0  0  0  0  0  0  0  0  0  0
   51.8060   26.4110  130.8640 C   0  0  0  0  0  0  0  0  0  0  0  0
   51.6740   35.1970  130.3930 C   0  0  0  0  0  0  0  0  0  0  0  0
   52.1900   34.0830  131.2810 C   0  0  0  0  0  0  0  0  0  0  0  0
   50.6920   40.0390  126.8070 C   0  0  0  0  0  3  0  0  0  0  0  0
   50.5800   40.0830  128.1860 C   0  0  0  0  0  3  0  0  0  0  0  0
   50.7610   42.2770  128.2190 C   0  0  0  0  0  3  0  0  0  0  0  0
   50.5120   38.0250  127.4500 C   0  0  0  0  0  3  0  0  0  0  0  0
   50.2940   38.2800  129.9580 C   0  0  0  0  0  0  0  0  0  0  0  0
   51.1500   36.4250  131.1090 C   0  0  0  0  0  0  0  0  0  0  0  0
   49.6400   36.4670  131.3210 C   0  0  0  0  0  0  0  0  0  0  0  0
   49.1540   37.2750  130.1160 C   0  0  0  0  0  0  0  0  0  0  0  0
   50.8010   43.2220  128.7580 H   0  0  0  0  0  0  0  0  0  0  0  0
   53.7130   32.2380  132.2410 H   0  0  0  0  0  0  0  0  0  0  0  0
   54.1620   31.4040  130.7990 H   0  0  0  0  0  0  0  0  0  0  0  0
   50.9030   40.5740  124.2040 H   0  0  0  0  0  0  0  0  0  0  0  0
   51.0410   42.2980  124.3760 H   0  0  0  0  0  0  0  0  0  0  0  0
   52.5660   29.8250  129.6900 H   0  0  0  0  0  0  0  0  0  0  0  0
   50.9460   32.6060  133.6940 H   0  0  0  0  0  0  0  0  0  0  0  0
   52.4260   31.8570  134.0680 H   0  0  0  0  0  0  0  0  0  0  0  0
   51.5480   28.2140  128.8910 H   0  0  0  0  0  0  0  0  0  0  0  0
   49.8310   28.3660  129.0330 H   0  0  0  0  0  0  0  0  0  0  0  0
   51.4330   26.2030  131.8660 H   0  0  0  0  0  0  0  0  0  0  0  0
   50.4470   36.9380  127.4570 H   0  0  0  0  0  0  0  0  0  0  0  0
   52.2170   25.4980  130.4370 H   0  0  0  0  0  0  0  0  0  0  0  0
   52.5990   27.1550  130.9360 H   0  0  0  0  0  0  0  0  0  0  0  0
   52.4040   35.5050  129.6460 H   0  0  0  0  0  0  0  0  0  0  0  0
   50.8690   34.7820  129.7870 H   0  0  0  0  0  0  0  0  0  0  0  0
   52.9690   34.4590  131.9430 H   0  0  0  0  0  0  0  0  0  0  0  0
   51.4120   33.7090  131.9460 H   0  0  0  0  0  0  0  0  0  0  0  0
   53.4640   33.2990  129.8500 H   0  0  0  0  0  0  0  0  0  0  0  0
   50.1880   39.1440  130.6130 H   0  0  0  0  0  0  0  0  0  0  0  0
   51.6810   36.5740  132.0470 H   0  0  0  0  0  0  0  0  0  0  0  0
   49.2230   35.4610  131.2960 H   0  0  0  0  0  0  0  0  0  0  0  0
   49.0270   36.6490  129.2340 H   0  0  0  0  0  0  0  0  0  0  0  0
   47.1920   37.4510  129.8850 H   0  0  0  0  0  0  0  0  0  0  0  0
   48.8540   36.3920  133.0990 H   0  0  0  0  0  0  0  0  0  0  0  0
   52.0200   32.5740  129.8730 H   0  0  0  0  0  0  0  0  0  0  0  0
   50.6050   41.1760  128.9580 N   0  0  0  0  0  2  0  0  0  0  0  0
   50.8760   42.3890  126.8920 N   0  0  0  0  0  2  0  0  0  0  0  0
   50.4600   38.7760  128.5900 N   0  0  0  0  0  0  0  0  0  0  0  0
   50.6490   38.7300  126.3520 N   0  0  0  0  0  2  0  0  0  0  0  0
   52.7440   32.9530  130.4760 N   0  0  0  0  0  4  0  0  0  0  0  0
   50.9350   41.3870  124.8110 N   0  0  0  0  0  0  0  0  0  0  0  0
   50.3150   30.0090  132.7700 N   0  0  0  0  0  2  0  0  0  0  0  0
   50.9160   29.0320  130.6990 N   0  0  0  0  0  0  0  0  0  0  0  0
   51.5240   31.7760  133.6100 N   0  0  0  0  0  0  0  0  0  0  0  0
   51.4770   37.6010  130.3320 O   0  0  0  0  0  0  0  0  0  0  0  0
   47.9140   37.9250  130.3750 O   0  0  0  0  0  0  0  0  0  0  0  0
   49.3070   37.0890  132.5560 O   0  0  0  0  0  0  0  0  0  0  0  0
   50.7280   26.7510  130.0110 O   0  0  0  0  0  0  0  0  0  0  0  0
   49.1580   28.2580  131.9010 O   0  0  0  0  0  1  0  0  0  0  0  0
  1 11  1  0
  1 46  1  0
  1 50  1  0
  2  3  1  0
  2 20  1  0
  2 21  1  0
  2 49  1  0
  3  4  1  0
  3  6  1  0
  4 51  1  0
  4 53  1  0
  5 51  1  0
  5 52  1  0
  5 58  1  0
  6 24  1  0
  6 52  1  0
  7 27  1  0
  7 28  1  0
  7 52  1  0
  7 57  1  0
  8 29  1  0
  8 31  1  0
  8 32  1  0
  8 57  1  0
  9 10  1  0
  9 16  1  0
  9 33  1  0
  9 34  1  0
 10 35  1  0
 10 36  1  0
 10 49  1  0
 11 12  1  0
 11 48  1  0
 12 45  1  0
 12 47  1  0
 13 19  1  0
 13 45  1  0
 13 46  1  0
 14 30  1  0
 14 47  1  0
 14 48  1  0
 15 18  1  0
 15 38  1  0
 15 47  1  0
 15 54  1  0
 16 17  1  0
 16 39  1  0
 16 54  1  0
 17 18  1  0
 17 40  1  0
 17 56  1  0
 18 41  1  0
 18 55  1  0
 22 50  1  0
 23 50  1  0
 25 53  1  0
 26 53  1  0
 37 49  1  0
 42 55  1  0
 43 56  1  0
 44 49  1  0
M  END
$$$$
