5u4x_D_SAH_501
     RDKit          3D

 26 28  0  0  0  0  0  0  0  0999 V2000
   14.0510   13.6950   70.5410 C   0  0  0  0  0  3  0  0  0  0  0  0
   10.1780   10.0490   76.8620 C   0  0  0  0  0  3  0  0  0  0  0  0
   10.7160    5.9030   78.4040 C   0  0  0  0  0  2  0  0  0  0  0  0
    9.0640   11.0650   76.7370 C   0  0  0  0  0  3  0  0  0  0  0  0
    9.5300   11.8500   75.5350 C   0  0  0  0  0  3  0  0  0  0  0  0
   10.6060    8.2460   78.4920 C   0  0  0  0  0  3  0  0  0  0  0  0
   11.0480   11.7180   75.5190 C   0  0  0  0  0  3  0  0  0  0  0  0
   10.9060    8.2220   79.9200 C   0  0  0  0  0  3  0  0  0  0  0  0
   11.8100   13.0100   75.8040 C   0  0  0  0  0  2  0  0  0  0  0  0
   11.1170    6.9030   80.5270 C   0  0  0  0  0  3  0  0  0  0  0  0
   10.6600   10.2770   79.3130 C   0  0  0  0  0  2  0  0  0  0  0  0
   13.3660   12.4920   71.1020 C   0  0  0  0  0  3  0  0  0  0  0  0
   12.3540   12.9200   72.1780 C   0  0  0  0  0  2  0  0  0  0  0  0
   12.9320   13.7350   73.3500 C   0  0  0  0  0  2  0  0  0  0  0  0
   14.3850   11.5690   71.6350 N   0  0  0  0  0  1  0  0  0  0  0  0
   11.0260    5.8040   79.7240 N   0  0  0  0  0  2  0  0  0  0  0  0
   10.5220    7.0900   77.7750 N   0  0  0  0  0  2  0  0  0  0  0  0
   11.3840    6.8410   81.8550 N   0  0  0  0  0  1  0  0  0  0  0  0
   10.9380    9.4940   80.3680 N   0  0  0  0  0  2  0  0  0  0  0  0
   10.4610    9.5330   78.2080 N   0  0  0  0  0  0  0  0  0  0  0  0
   13.4880   14.4070   69.7050 O   0  0  0  0  0  1  0  0  0  0  0  0
    7.7790   10.4590   76.5680 O   0  0  0  0  0  1  0  0  0  0  0  0
    8.9830   11.3300   74.3050 O   0  0  0  0  0  1  0  0  0  0  0  0
   11.3650   10.7480   76.5040 O   0  0  0  0  0  0  0  0  0  0  0  0
   15.2070   13.9880   70.8960 O   0  0  0  0  0  1  0  0  0  0  0  0
   11.6170   14.1730   74.4780 S   0  0  0  0  0  0  0  0  0  0  0  0
  1 12  1  0
  1 21  1  0
  1 25  1  0
  2  4  1  0
  2 20  1  0
  2 24  1  0
  3 16  1  0
  3 17  1  0
  4  5  1  0
  4 22  1  0
  5  7  1  0
  5 23  1  0
  6  8  1  0
  6 17  1  0
  6 20  1  0
  7  9  1  0
  7 24  1  0
  8 10  1  0
  8 19  1  0
  9 26  1  0
 10 16  1  0
 10 18  1  0
 11 19  1  0
 11 20  1  0
 12 13  1  0
 12 15  1  0
 13 14  1  0
 14 26  1  0
M  END
$$$$
