5u4x_C_SAH_501
     RDKit          3D

 26 28  0  0  0  0  0  0  0  0999 V2000
  -15.6260   35.3700   89.9410 C   0  0  0  0  0  3  0  0  0  0  0  0
  -14.5690   27.3060   91.7560 C   0  0  0  0  0  3  0  0  0  0  0  0
  -16.8760   24.8010   94.6630 C   0  0  0  0  0  2  0  0  0  0  0  0
  -13.1750   27.3960   91.1600 C   0  0  0  0  0  3  0  0  0  0  0  0
  -13.0870   28.8980   90.8480 C   0  0  0  0  0  3  0  0  0  0  0  0
  -15.9250   25.4310   92.6090 C   0  0  0  0  0  3  0  0  0  0  0  0
  -14.5110   29.3670   90.6100 C   0  0  0  0  0  3  0  0  0  0  0  0
  -16.5160   24.2460   91.9710 C   0  0  0  0  0  3  0  0  0  0  0  0
  -14.7860   29.7450   89.1540 C   0  0  0  0  0  2  0  0  0  0  0  0
  -17.3020   23.3630   92.8050 C   0  0  0  0  0  3  0  0  0  0  0  0
  -15.4220   25.3210   90.4900 C   0  0  0  0  0  2  0  0  0  0  0  0
  -15.5830   34.2560   90.9430 C   0  0  0  0  0  3  0  0  0  0  0  0
  -14.6550   33.1300   90.4900 C   0  0  0  0  0  2  0  0  0  0  0  0
  -15.0360   32.5120   89.1530 C   0  0  0  0  0  2  0  0  0  0  0  0
  -16.9470   33.7410   91.1670 N   0  0  0  0  0  1  0  0  0  0  0  0
  -17.4480   23.6940   94.1010 N   0  0  0  0  0  2  0  0  0  0  0  0
  -16.1210   25.6710   93.9350 N   0  0  0  0  0  2  0  0  0  0  0  0
  -17.8310   22.2740   92.1980 N   0  0  0  0  0  1  0  0  0  0  0  0
  -16.1940   24.2260   90.6740 N   0  0  0  0  0  2  0  0  0  0  0  0
  -15.2750   26.0260   91.6250 N   0  0  0  0  0  0  0  0  0  0  0  0
  -16.6220   35.4750   89.2330 O   0  0  0  0  0  1  0  0  0  0  0  0
  -12.2150   26.9620   92.1140 O   0  0  0  0  0  1  0  0  0  0  0  0
  -12.5630   29.6390   91.9390 O   0  0  0  0  0  1  0  0  0  0  0  0
  -15.3580   28.2710   91.0100 O   0  0  0  0  0  0  0  0  0  0  0  0
  -14.7100   36.1770   89.7750 O   0  0  0  0  0  1  0  0  0  0  0  0
  -13.9170   31.2200   88.6620 S   0  0  0  0  0  0  0  0  0  0  0  0
  1 12  1  0
  1 21  1  0
  1 25  1  0
  2  4  1  0
  2 20  1  0
  2 24  1  0
  3 16  1  0
  3 17  1  0
  4  5  1  0
  4 22  1  0
  5  7  1  0
  5 23  1  0
  6  8  1  0
  6 17  1  0
  6 20  1  0
  7  9  1  0
  7 24  1  0
  8 10  1  0
  8 19  1  0
  9 26  1  0
 10 16  1  0
 10 18  1  0
 11 19  1  0
 11 20  1  0
 12 13  1  0
 12 15  1  0
 13 14  1  0
 14 26  1  0
M  END
$$$$
