6arj_B_BW4_502
     RDKit          3D

 80211  0  0  0  0  0  0  0  0999 V2000
   10.4630   25.8690   25.3180 C   0  0  0  0  0  7  0  0  0  0  0  0
   10.4640   25.8660   25.3230 C   0  0  0  0  0  7  0  0  0  0  0  0
    9.1120   26.9970   23.7090 C   0  0  0  0  0  7  0  0  0  0  0  0
    9.1150   26.9910   23.7160 C   0  0  0  0  0  7  0  0  0  0  0  0
    7.9830   26.3530   24.2460 C   0  0  0  0  0  7  0  0  0  0  0  0
    7.9850   26.3480   24.2500 C   0  0  0  0  0  7  0  0  0  0  0  0
    8.1600   25.4870   25.3360 C   0  0  0  0  0  7  0  0  0  0  0  0
    8.1610   25.4840   25.3390 C   0  0  0  0  0  7  0  0  0  0  0  0
   15.3210   32.7280   25.8090 C   0  0  0  0  0  2  0  0  0  0  0  0
   14.9080   31.0280   27.4830 C   0  0  0  0  0  0  0  0  0  0  0  0
   14.9080   31.0290   27.4830 C   0  0  0  0  0  0  0  0  0  0  0  0
   15.2570   29.5720   27.8070 C   0  0  0  0  0  6  0  0  0  0  0  0
   14.1140   28.6670   27.3210 C   0  0  0  0  0  0  0  0  0  0  0  0
   14.1140   28.6680   27.3200 C   0  0  0  0  0  0  0  0  0  0  0  0
   13.7640   26.3750   26.9520 C   0  0  0  0  0  7  0  0  0  0  0  0
   13.7650   26.3740   26.9530 C   0  0  0  0  0  7  0  0  0  0  0  0
   14.1890   25.0740   27.1100 C   0  0  0  0  0  5  0  0  0  0  0  0
   14.1900   25.0730   27.1100 C   0  0  0  0  0  5  0  0  0  0  0  0
   13.3850   24.0350   26.6700 C   0  0  0  0  0  5  0  0  0  0  0  0
   13.3870   24.0340   26.6710 C   0  0  0  0  0  5  0  0  0  0  0  0
   12.1590   24.2920   26.0890 C   0  0  0  0  0  7  0  0  0  0  0  0
   12.1600   24.2910   26.0910 C   0  0  0  0  0  7  0  0  0  0  0  0
   11.7070   25.6020   25.9100 C   0  0  0  0  0  7  0  0  0  0  0  0
   11.7090   25.6010   25.9140 C   0  0  0  0  0  7  0  0  0  0  0  0
   12.5240   26.6530   26.3630 C   0  0  0  0  0  5  0  0  0  0  0  0
   12.5250   26.6530   26.3660 C   0  0  0  0  0  5  0  0  0  0  0  0
    5.7750   24.3750   25.5280 C   0  0  0  0  0  5  0  0  0  0  0  0
    5.7760   24.3730   25.5260 C   0  0  0  0  0  5  0  0  0  0  0  0
    5.7580   23.4220   26.7200 C   0  0  0  0  0  9  0  0  0  0  0  0
    5.7610   23.4210   26.7200 C   0  0  0  0  0  9  0  0  0  0  0  0
    7.1080   23.9660   27.1430 C   0  0  0  0  0  5  0  0  0  0  0  0
    7.1100   23.9690   27.1420 C   0  0  0  0  0  5  0  0  0  0  0  0
    4.6490   23.7590   27.7370 C   0  0  0  0  0  5  0  0  0  0  0  0
    5.8790   21.9260   26.3700 C   0  0  0  0  0  5  0  0  0  0  0  0
    3.3240   23.1830   27.2560 C   0  0  0  0  0  5  0  0  0  0  0  0
    4.5280   21.2950   26.0610 C   0  0  0  0  0  5  0  0  0  0  0  0
    3.3240   23.1800   27.2470 C   0  0  0  0  0  5  0  0  0  0  0  0
    4.5200   21.2980   26.0630 C   0  0  0  0  0  5  0  0  0  0  0  0
    4.6480   23.7570   27.7340 C   0  0  0  0  0  5  0  0  0  0  0  0
    5.8730   21.9270   26.3660 C   0  0  0  0  0  5  0  0  0  0  0  0
    2.8160   20.8140   27.7570 C   0  0  0  0  0  7  0  0  0  0  0  0
    2.8170   20.8190   27.7690 C   0  0  0  0  0  7  0  0  0  0  0  0
    0.8880   20.2050   28.8200 C   0  0  0  0  0  3  0  0  0  0  0  0
    0.9110   20.1740   28.8350 C   0  0  0  0  0  3  0  0  0  0  0  0
    6.6970   26.5840   23.7380 C   0  0  0  0  0  3  0  0  0  0  0  0
    6.7010   26.5800   23.7390 C   0  0  0  0  0  3  0  0  0  0  0  0
    9.0810   27.8780   22.6700 C   0  0  0  0  0  7  0  0  0  0  0  0
    9.0830   27.8680   22.6780 C   0  0  0  0  0  7  0  0  0  0  0  0
    8.7150   27.6590   21.4020 C   0  0  0  0  0  7  0  0  0  0  0  0
    9.4940   29.1500   22.7400 C   0  0  0  0  0  7  0  0  0  0  0  0
    8.1800   26.3760   20.7910 C   0  0  0  0  0  3  0  0  0  0  0  0
   10.0070   29.8560   23.9790 C   0  0  0  0  0  3  0  0  0  0  0  0
    8.7160   27.6800   21.3880 C   0  0  0  0  0  7  0  0  0  0  0  0
    9.4940   29.1410   22.7430 C   0  0  0  0  0  7  0  0  0  0  0  0
    8.1780   26.4060   20.7610 C   0  0  0  0  0  3  0  0  0  0  0  0
   10.0080   29.8490   23.9810 C   0  0  0  0  0  3  0  0  0  0  0  0
   11.2250   22.8760   25.5690 Cl  0  0  0  0  0  3  0  0  0  0  0  0
   11.2250   22.8760   25.5700 Cl  0  0  0  0  0  3  0  0  0  0  0  0
    9.3810   25.2650   25.8320 N   0  0  0  0  0  5  0  0  0  0  0  0
    9.3820   25.2620   25.8360 N   0  0  0  0  0  5  0  0  0  0  0  0
   10.3100   26.7180   24.2740 N   0  0  0  0  0  5  0  0  0  0  0  0
   10.3130   26.7150   24.2800 N   0  0  0  0  0  5  0  0  0  0  0  0
   15.3430   31.2870   26.0940 N   0  0  0  0  0  4  0  0  0  0  0  0
   15.3440   31.2860   26.0940 N   0  0  0  0  0  4  0  0  0  0  0  0
    7.1600   24.7960   25.9170 N   0  0  0  0  0  7  0  0  0  0  0  0
    7.1600   24.7980   25.9150 N   0  0  0  0  0  7  0  0  0  0  0  0
    3.5090   21.7270   27.0490 N   0  0  0  0  0  7  0  0  0  0  0  0
    3.5120   21.7230   27.0410 N   0  0  0  0  0  7  0  0  0  0  0  0
    8.8610   28.7800   20.6580 N   0  0  0  0  0  5  0  0  0  0  0  0
    9.3700   29.7450   21.5600 N   0  0  0  0  0  5  0  0  0  0  0  0
   15.4490   29.3940   29.2200 O   0  0  0  0  0  0  0  0  0  0  0  0
   15.4490   29.3950   29.2200 O   0  0  0  0  0  0  0  0  0  0  0  0
   14.6190   27.3390   27.4100 O   0  0  0  0  0  5  0  0  0  0  0  0
   14.6200   27.3390   27.4110 O   0  0  0  0  0  5  0  0  0  0  0  0
    3.0220   19.6160   27.6070 O   0  0  0  0  0  3  0  0  0  0  0  0
    3.0250   19.6120   27.5960 O   0  0  0  0  0  3  0  0  0  0  0  0
    1.8780   21.2150   28.6610 O   0  0  0  0  0  5  0  0  0  0  0  0
    1.8860   21.2220   28.6790 O   0  0  0  0  0  5  0  0  0  0  0  0
    8.8640   28.7570   20.6840 O   0  0  0  0  0  5  0  0  0  0  0  0
    9.3640   29.7810   21.5020 O   0  0  0  0  0  5  0  0  0  0  0  0
  1  2  1  0
  1 23  1  0
  1 24  1  0
  1 59  1  0
  1 60  1  0
  1 61  1  0
  1 62  1  0
  2 23  1  0
  2 24  1  0
  2 59  1  0
  2 60  1  0
  2 61  1  0
  2 62  1  0
  3  4  1  0
  3  5  1  0
  3  6  1  0
  3 47  1  0
  3 48  1  0
  3 61  1  0
  3 62  1  0
  4  5  1  0
  4  6  1  0
  4 47  1  0
  4 48  1  0
  4 61  1  0
  4 62  1  0
  5  6  1  0
  5  7  1  0
  5  8  1  0
  5 45  1  0
  5 46  1  0
  6  7  1  0
  6  8  1  0
  6 45  1  0
  6 46  1  0
  7  8  1  0
  7 59  1  0
  7 60  1  0
  7 65  1  0
  7 66  1  0
  8 59  1  0
  8 60  1  0
  8 65  1  0
  8 66  1  0
  9 63  1  0
  9 64  1  0
 10 11  1  0
 10 12  1  0
 10 63  1  0
 10 64  1  0
 11 12  1  0
 11 63  1  0
 11 64  1  0
 12 13  1  0
 12 14  1  0
 12 71  1  0
 12 72  1  0
 13 14  1  0
 13 73  1  0
 13 74  1  0
 14 73  1  0
 14 74  1  0
 15 16  1  0
 15 17  1  0
 15 18  1  0
 15 25  1  0
 15 26  1  0
 15 73  1  0
 15 74  1  0
 16 17  1  0
 16 18  1  0
 16 25  1  0
 16 26  1  0
 16 73  1  0
 16 74  1  0
 17 18  1  0
 17 19  1  0
 17 20  1  0
 18 19  1  0
 18 20  1  0
 19 20  1  0
 19 21  1  0
 19 22  1  0
 20 21  1  0
 20 22  1  0
 21 22  1  0
 21 23  1  0
 21 24  1  0
 21 57  1  0
 21 58  1  0
 22 23  1  0
 22 24  1  0
 22 57  1  0
 22 58  1  0
 23 24  1  0
 23 25  1  0
 23 26  1  0
 24 25  1  0
 24 26  1  0
 25 26  1  0
 27 28  1  0
 27 29  1  0
 27 30  1  0
 27 65  1  0
 27 66  1  0
 28 29  1  0
 28 30  1  0
 28 65  1  0
 28 66  1  0
 29 30  1  0
 29 31  1  0
 29 32  1  0
 29 33  1  0
 29 34  1  0
 29 39  1  0
 29 40  1  0
 30 31  1  0
 30 32  1  0
 30 33  1  0
 30 34  1  0
 30 39  1  0
 30 40  1  0
 31 32  1  0
 31 65  1  0
 31 66  1  0
 32 65  1  0
 32 66  1  0
 33 35  1  0
 33 37  1  0
 33 39  1  0
 34 36  1  0
 34 38  1  0
 34 40  1  0
 35 37  1  0
 35 39  1  0
 35 67  1  0
 35 68  1  0
 36 38  1  0
 36 40  1  0
 36 67  1  0
 36 68  1  0
 37 39  1  0
 37 67  1  0
 37 68  1  0
 38 40  1  0
 38 67  1  0
 38 68  1  0
 41 42  1  0
 41 67  1  0
 41 68  1  0
 41 75  1  0
 41 76  1  0
 41 77  1  0
 41 78  1  0
 42 67  1  0
 42 68  1  0
 42 75  1  0
 42 76  1  0
 42 77  1  0
 42 78  1  0
 43 44  1  0
 43 77  1  0
 43 78  1  0
 44 77  1  0
 44 78  1  0
 45 46  1  0
 47 48  1  0
 47 49  1  0
 47 50  1  0
 47 53  1  0
 47 54  1  0
 48 49  1  0
 48 50  1  0
 48 53  1  0
 48 54  1  0
 49 51  1  0
 49 53  1  0
 49 55  1  0
 49 69  1  0
 49 79  1  0
 50 52  1  0
 50 54  1  0
 50 56  1  0
 50 70  1  0
 50 80  1  0
 51 53  1  0
 51 55  1  0
 52 54  1  0
 52 56  1  0
 53 55  1  0
 53 69  1  0
 53 79  1  0
 54 56  1  0
 54 70  1  0
 54 80  1  0
 57 58  1  0
 59 60  1  0
 61 62  1  0
 63 64  1  0
 65 66  1  0
 67 68  1  0
 69 70  1  0
 69 79  1  0
 69 80  1  0
 70 79  1  0
 70 80  1  0
 71 72  1  0
 73 74  1  0
 75 76  1  0
 77 78  1  0
 79 80  1  0
M  END
$$$$
