6arj_C_BW4_502
     RDKit          3D

 82221  0  0  0  0  0  0  0  0999 V2000
    9.2360   20.2430   80.0270 C   0  0  0  0  0  7  0  0  0  0  0  0
    9.2370   20.2410   80.0270 C   0  0  0  0  0  7  0  0  0  0  0  0
    8.6790   22.4460   80.6870 C   0  0  0  0  0  7  0  0  0  0  0  0
    8.6900   22.4440   80.6950 C   0  0  0  0  0  7  0  0  0  0  0  0
    7.3190   22.1490   80.5610 C   0  0  0  0  0  7  0  0  0  0  0  0
    7.3290   22.1530   80.5660 C   0  0  0  0  0  7  0  0  0  0  0  0
    6.9780   20.8550   80.1500 C   0  0  0  0  0  7  0  0  0  0  0  0
    6.9820   20.8620   80.1490 C   0  0  0  0  0  7  0  0  0  0  0  0
   15.7480   20.4370   85.4140 C   0  0  0  0  0  3  0  0  0  0  0  0
   15.7480   20.4370   85.4160 C   0  0  0  0  0  3  0  0  0  0  0  0
   14.6040   18.4700   84.6290 C   0  0  0  0  0  5  0  0  0  0  0  0
   14.6060   18.4670   84.6310 C   0  0  0  0  0  5  0  0  0  0  0  0
   14.3220   17.6750   83.3590 C   0  0  0  0  0  7  0  0  0  0  0  0
   14.3220   17.6760   83.3580 C   0  0  0  0  0  7  0  0  0  0  0  0
   13.1370   18.2970   82.6030 C   0  0  0  0  0  5  0  0  0  0  0  0
   13.1380   18.2970   82.6000 C   0  0  0  0  0  5  0  0  0  0  0  0
   12.1110   17.9540   80.4650 C   0  0  0  0  0  7  0  0  0  0  0  0
   12.1130   17.9530   80.4630 C   0  0  0  0  0  7  0  0  0  0  0  0
   12.1340   17.2870   79.2440 C   0  0  0  0  0  5  0  0  0  0  0  0
   12.1350   17.2870   79.2410 C   0  0  0  0  0  5  0  0  0  0  0  0
   11.1980   17.6050   78.2730 C   0  0  0  0  0  5  0  0  0  0  0  0
   11.1980   17.6060   78.2700 C   0  0  0  0  0  5  0  0  0  0  0  0
   10.2360   18.5730   78.5300 C   0  0  0  0  0  7  0  0  0  0  0  0
   10.2360   18.5730   78.5320 C   0  0  0  0  0  7  0  0  0  0  0  0
   10.1990   19.2540   79.7580 C   0  0  0  0  0  7  0  0  0  0  0  0
   10.1990   19.2550   79.7590 C   0  0  0  0  0  7  0  0  0  0  0  0
   11.1450   18.9250   80.7270 C   0  0  0  0  0  5  0  0  0  0  0  0
   11.1460   18.9230   80.7250 C   0  0  0  0  0  5  0  0  0  0  0  0
    4.3400   21.0400   80.0170 C   0  0  0  0  0  5  0  0  0  0  0  0
    5.1530   19.2080   79.3790 C   0  0  0  0  0  5  0  0  0  0  0  0
    3.7590   19.7830   79.5030 C   0  0  0  0  0  9  0  0  0  0  0  0
    3.7700   19.7390   79.4860 C   0  0  0  0  0  9  0  0  0  0  0  0
    4.3450   21.0600   80.0700 C   0  0  0  0  0  5  0  0  0  0  0  0
    5.1700   19.1670   79.4130 C   0  0  0  0  0  5  0  0  0  0  0  0
    2.9200   19.0180   80.4980 C   0  0  0  0  0  5  0  0  0  0  0  0
    3.0920   19.8510   78.1150 C   0  0  0  0  0  5  0  0  0  0  0  0
    2.6990   18.4580   77.5810 C   0  0  0  0  0  5  0  0  0  0  0  0
    2.7370   17.6120   79.9570 C   0  0  0  0  0  5  0  0  0  0  0  0
    2.6520   18.5900   77.5700 C   0  0  0  0  0  5  0  0  0  0  0  0
    2.7610   17.5810   80.0090 C   0  0  0  0  0  5  0  0  0  0  0  0
    2.9160   19.0100   80.4930 C   0  0  0  0  0  5  0  0  0  0  0  0
    3.0560   19.9540   78.1530 C   0  0  0  0  0  5  0  0  0  0  0  0
    1.1210   16.8110   78.3130 C   0  0  0  0  0  7  0  0  0  0  0  0
    1.1880   16.6770   78.3820 C   0  0  0  0  0  7  0  0  0  0  0  0
    0.4410   14.6420   78.7040 C   0  0  0  0  0  3  0  0  0  0  0  0
    0.4820   14.5320   78.8570 C   0  0  0  0  0  3  0  0  0  0  0  0
    6.3420   23.1240   80.8260 C   0  0  0  0  0  3  0  0  0  0  0  0
    6.3550   23.1290   80.8340 C   0  0  0  0  0  3  0  0  0  0  0  0
    9.1140   23.6550   81.0760 C   0  0  0  0  0  7  0  0  0  0  0  0
    9.1340   23.6480   81.0920 C   0  0  0  0  0  7  0  0  0  0  0  0
    8.9360   24.8240   80.4970 C   0  0  0  0  0  7  0  0  0  0  0  0
    9.8710   23.8910   82.1450 C   0  0  0  0  0  7  0  0  0  0  0  0
    8.1200   25.0760   79.2340 C   0  0  0  0  0  3  0  0  0  0  0  0
   10.3490   22.8360   83.1340 C   0  0  0  0  0  3  0  0  0  0  0  0
    8.9040   24.8210   80.4610 C   0  0  0  0  0  7  0  0  0  0  0  0
    9.9000   23.8560   82.1650 C   0  0  0  0  0  7  0  0  0  0  0  0
    8.0860   25.0180   79.1910 C   0  0  0  0  0  3  0  0  0  0  0  0
   10.3560   22.7590   83.1180 C   0  0  0  0  0  3  0  0  0  0  0  0
    9.1180   18.8980   77.2810 Cl  0  0  0  0  0  3  0  0  0  0  0  0
    9.1190   18.8960   77.2820 Cl  0  0  0  0  0  3  0  0  0  0  0  0
    7.9400   19.9560   79.8950 N   0  0  0  0  0  5  0  0  0  0  0  0
    7.9400   19.9590   79.8920 N   0  0  0  0  0  5  0  0  0  0  0  0
    9.5860   21.4820   80.4190 N   0  0  0  0  0  5  0  0  0  0  0  0
    9.5920   21.4760   80.4260 N   0  0  0  0  0  5  0  0  0  0  0  0
   15.1300   19.7910   84.2490 N   0  0  0  0  0  5  0  0  0  0  0  0
   15.1310   19.7890   84.2510 N   0  0  0  0  0  5  0  0  0  0  0  0
    5.7150   20.4590   79.9550 N   0  0  0  0  0  7  0  0  0  0  0  0
    5.7160   20.4400   79.9560 N   0  0  0  0  0  7  0  0  0  0  0  0
    2.1400   17.6450   78.5990 N   0  0  0  0  0  7  0  0  0  0  0  0
    2.1870   17.5460   78.6410 N   0  0  0  0  0  7  0  0  0  0  0  0
    9.5030   25.8160   81.1220 N   0  0  0  0  0  5  0  0  0  0  0  0
   10.1980   25.1500   82.3020 N   0  0  0  0  0  5  0  0  0  0  0  0
   14.0500   16.3040   83.6740 O   0  0  0  0  0  3  0  0  0  0  0  0
   14.0510   16.3050   83.6740 O   0  0  0  0  0  3  0  0  0  0  0  0
   13.0570   17.5870   81.3670 O   0  0  0  0  0  5  0  0  0  0  0  0
   13.0590   17.5860   81.3650 O   0  0  0  0  0  5  0  0  0  0  0  0
    0.6020   16.8250   77.1970 O   0  0  0  0  0  3  0  0  0  0  0  0
    0.6790   16.6240   77.2620 O   0  0  0  0  0  3  0  0  0  0  0  0
    0.6580   15.9480   79.2640 O   0  0  0  0  0  5  0  0  0  0  0  0
    0.7320   15.8530   79.3690 O   0  0  0  0  0  5  0  0  0  0  0  0
    9.5850   25.8200   81.2210 O   0  0  0  0  0  5  0  0  0  0  0  0
   10.1440   25.2380   82.2390 O   0  0  0  0  0  5  0  0  0  0  0  0
  1  2  1  0
  1 25  1  0
  1 26  1  0
  1 61  1  0
  1 62  1  0
  1 63  1  0
  1 64  1  0
  2 25  1  0
  2 26  1  0
  2 61  1  0
  2 62  1  0
  2 63  1  0
  2 64  1  0
  3  4  1  0
  3  5  1  0
  3  6  1  0
  3 49  1  0
  3 50  1  0
  3 63  1  0
  3 64  1  0
  4  5  1  0
  4  6  1  0
  4 49  1  0
  4 50  1  0
  4 63  1  0
  4 64  1  0
  5  6  1  0
  5  7  1  0
  5  8  1  0
  5 47  1  0
  5 48  1  0
  6  7  1  0
  6  8  1  0
  6 47  1  0
  6 48  1  0
  7  8  1  0
  7 61  1  0
  7 62  1  0
  7 67  1  0
  7 68  1  0
  8 61  1  0
  8 62  1  0
  8 67  1  0
  8 68  1  0
  9 10  1  0
  9 65  1  0
  9 66  1  0
 10 65  1  0
 10 66  1  0
 11 12  1  0
 11 13  1  0
 11 14  1  0
 11 65  1  0
 11 66  1  0
 12 13  1  0
 12 14  1  0
 12 65  1  0
 12 66  1  0
 13 14  1  0
 13 15  1  0
 13 16  1  0
 13 73  1  0
 13 74  1  0
 14 15  1  0
 14 16  1  0
 14 73  1  0
 14 74  1  0
 15 16  1  0
 15 75  1  0
 15 76  1  0
 16 75  1  0
 16 76  1  0
 17 18  1  0
 17 19  1  0
 17 20  1  0
 17 27  1  0
 17 28  1  0
 17 75  1  0
 17 76  1  0
 18 19  1  0
 18 20  1  0
 18 27  1  0
 18 28  1  0
 18 75  1  0
 18 76  1  0
 19 20  1  0
 19 21  1  0
 19 22  1  0
 20 21  1  0
 20 22  1  0
 21 22  1  0
 21 23  1  0
 21 24  1  0
 22 23  1  0
 22 24  1  0
 23 24  1  0
 23 25  1  0
 23 26  1  0
 23 59  1  0
 23 60  1  0
 24 25  1  0
 24 26  1  0
 24 59  1  0
 24 60  1  0
 25 26  1  0
 25 27  1  0
 25 28  1  0
 26 27  1  0
 26 28  1  0
 27 28  1  0
 29 31  1  0
 29 32  1  0
 29 33  1  0
 29 67  1  0
 29 68  1  0
 30 31  1  0
 30 32  1  0
 30 34  1  0
 30 67  1  0
 30 68  1  0
 31 32  1  0
 31 33  1  0
 31 34  1  0
 31 35  1  0
 31 36  1  0
 31 41  1  0
 31 42  1  0
 32 33  1  0
 32 34  1  0
 32 35  1  0
 32 36  1  0
 32 41  1  0
 32 42  1  0
 33 67  1  0
 33 68  1  0
 34 67  1  0
 34 68  1  0
 35 38  1  0
 35 40  1  0
 35 41  1  0
 36 37  1  0
 36 39  1  0
 36 42  1  0
 37 39  1  0
 37 42  1  0
 37 69  1  0
 37 70  1  0
 38 40  1  0
 38 41  1  0
 38 69  1  0
 38 70  1  0
 39 42  1  0
 39 69  1  0
 39 70  1  0
 40 41  1  0
 40 69  1  0
 40 70  1  0
 43 44  1  0
 43 69  1  0
 43 70  1  0
 43 77  1  0
 43 78  1  0
 43 79  1  0
 43 80  1  0
 44 69  1  0
 44 70  1  0
 44 77  1  0
 44 78  1  0
 44 79  1  0
 44 80  1  0
 45 46  1  0
 45 79  1  0
 45 80  1  0
 46 79  1  0
 46 80  1  0
 47 48  1  0
 49 50  1  0
 49 51  1  0
 49 52  1  0
 49 55  1  0
 49 56  1  0
 50 51  1  0
 50 52  1  0
 50 55  1  0
 50 56  1  0
 51 53  1  0
 51 55  1  0
 51 57  1  0
 51 71  1  0
 51 81  1  0
 52 54  1  0
 52 56  1  0
 52 58  1  0
 52 72  1  0
 52 82  1  0
 53 55  1  0
 53 57  1  0
 54 56  1  0
 54 58  1  0
 55 57  1  0
 55 71  1  0
 55 81  1  0
 56 58  1  0
 56 72  1  0
 56 82  1  0
 59 60  1  0
 61 62  1  0
 63 64  1  0
 65 66  1  0
 67 68  1  0
 69 70  1  0
 71 72  1  0
 71 81  1  0
 71 82  1  0
 72 81  1  0
 72 82  1  0
 73 74  1  0
 75 76  1  0
 77 78  1  0
 79 80  1  0
 81 82  1  0
M  END
$$$$
