6d2l_F_FTG_501
     RDKit          3D

 44 48  0  0  0  0  0  0  0  0999 V2000
    3.8620   19.0630   42.6740 C   0  0  0  0  0  3  0  0  0  0  0  0
    3.8410   17.5340   42.4860 C   0  0  0  0  0  3  0  0  0  0  0  0
    4.2340   14.9950   34.0790 C   0  0  0  0  0  2  0  0  0  0  0  0
    3.2790   16.1470   33.8750 C   0  0  0  0  0  3  0  0  0  0  0  0
    2.6770   16.3670   32.6440 C   0  0  0  0  0  2  0  0  0  0  0  0
    1.9260   17.5080   32.4040 C   0  0  0  0  0  2  0  0  0  0  0  0
    1.7650   18.4460   33.4070 C   0  0  0  0  0  3  0  0  0  0  0  0
    2.3110   18.2170   34.6590 C   0  0  0  0  0  2  0  0  0  0  0  0
    3.0600   17.0720   34.8840 C   0  0  0  0  0  2  0  0  0  0  0  0
    7.0900   14.5120   41.0630 C   0  0  0  0  0  2  0  0  0  0  0  0
    8.8030   13.3350   42.4270 C   0  0  0  0  0  2  0  0  0  0  0  0
    5.3100   17.1800   42.2290 C   0  0  0  0  0  3  0  0  0  0  0  0
    8.4920   11.8810   42.1690 C   0  0  0  0  0  3  0  0  0  0  0  0
    9.3780   11.0870   41.4540 C   0  0  0  0  0  2  0  0  0  0  0  0
    9.0840    9.7620   41.1900 C   0  0  0  0  0  2  0  0  0  0  0  0
    7.8920    9.2170   41.6210 C   0  0  0  0  0  2  0  0  0  0  0  0
    7.0030    9.9930   42.3360 C   0  0  0  0  0  2  0  0  0  0  0  0
    7.3050   11.3150   42.6170 C   0  0  0  0  0  2  0  0  0  0  0  0
    5.2880   19.2890   43.1480 C   0  0  0  0  0  3  0  0  0  0  0  0
    6.1980   21.5320   43.9080 C   0  0  0  0  0  3  0  0  0  0  0  0
    6.6990   22.4290   45.8620 C   0  0  0  0  0  2  0  0  0  0  0  0
    7.0680   23.7460   43.9990 C   0  0  0  0  0  3  0  0  0  0  0  0
    5.6020   16.5900   40.8630 C   0  0  0  0  0  2  0  0  0  0  0  0
    6.5980   22.6670   43.2250 C   0  0  0  0  0  3  0  0  0  0  0  0
    5.9680   21.2810   41.7490 C   0  0  0  0  0  2  0  0  0  0  0  0
    7.0010   15.9920   40.7150 C   0  0  0  0  0  3  0  0  0  0  0  0
    7.6510   16.3560   39.3740 C   0  0  0  0  0  2  0  0  0  0  0  0
    6.7830   16.2070   38.1250 C   0  0  0  0  0  2  0  0  0  0  0  0
    7.6790   16.3450   36.8480 C   0  0  0  0  0  3  0  0  0  0  0  0
    6.9990   15.4680   35.7290 C   0  0  0  0  0  3  0  0  0  0  0  0
    5.6870   15.3240   33.6560 C   0  0  0  0  0  2  0  0  0  0  0  0
    6.4170   16.0590   34.6830 N   0  0  0  0  0  2  0  0  0  0  0  0
    8.0290   17.7350   36.4990 N   0  0  0  0  0  1  0  0  0  0  0  0
    8.5140   14.1970   41.2740 N   0  0  0  0  0  2  0  0  0  0  0  0
    5.7950   20.6400   42.9450 N   0  0  0  0  0  0  0  0  0  0  0  0
    6.2110   21.3500   45.2360 N   0  0  0  0  0  2  0  0  0  0  0  0
    7.1260   23.5830   45.3390 N   0  0  0  0  0  2  0  0  0  0  0  0
    7.3570   24.9450   43.4930 N   0  0  0  0  0  1  0  0  0  0  0  0
    6.4440   22.4960   41.8580 N   0  0  0  0  0  2  0  0  0  0  0  0
    2.9550   19.5050   43.6700 O   0  0  0  0  0  1  0  0  0  0  0  0
    3.3260   16.8050   43.6000 O   0  0  0  0  0  1  0  0  0  0  0  0
    1.1340   19.6330   33.1600 O   0  0  0  0  0  1  0  0  0  0  0  0
    7.0130   14.2540   35.8900 O   0  0  0  0  0  1  0  0  0  0  0  0
    6.0570   18.4040   42.3780 O   0  0  0  0  0  0  0  0  0  0  0  0
  1  2  1  0
  1 19  1  0
  1 40  1  0
  2 12  1  0
  2 41  1  0
  3  4  1  0
  3 31  1  0
  4  5  1  0
  4  9  1  0
  5  6  1  0
  6  7  1  0
  7  8  1  0
  7 42  1  0
  8  9  1  0
 10 26  1  0
 10 34  1  0
 11 13  1  0
 11 34  1  0
 12 23  1  0
 12 44  1  0
 13 14  1  0
 13 18  1  0
 14 15  1  0
 15 16  1  0
 16 17  1  0
 17 18  1  0
 19 35  1  0
 19 44  1  0
 20 24  1  0
 20 35  1  0
 20 36  1  0
 21 36  1  0
 21 37  1  0
 22 24  1  0
 22 37  1  0
 22 38  1  0
 23 26  1  0
 24 39  1  0
 25 35  1  0
 25 39  1  0
 26 27  1  0
 27 28  1  0
 28 29  1  0
 29 30  1  0
 29 33  1  0
 30 32  1  0
 30 43  1  0
 31 32  1  0
M  END
$$$$
