6d2l_C_FTG_501
     RDKit          3D

 39 42  0  0  0  0  0  0  0  0999 V2000
    4.0420   -5.6090   75.2090 C   0  0  0  0  0  3  0  0  0  0  0  0
    4.1370   -4.6800   76.4300 C   0  0  0  0  0  3  0  0  0  0  0  0
    4.9210   -9.6160   84.3270 C   0  0  0  0  0  2  0  0  0  0  0  0
    3.7940  -10.4490   83.7560 C   0  0  0  0  0  2  0  0  0  0  0  0
    3.4820  -10.4090   82.4050 C   0  0  0  0  0  1  0  0  0  0  0  0
    7.5910   -4.0360   79.3430 C   0  0  0  0  0  2  0  0  0  0  0  0
    9.3780   -2.3490   79.2510 C   0  0  0  0  0  2  0  0  0  0  0  0
    5.6270   -4.7120   76.7920 C   0  0  0  0  0  3  0  0  0  0  0  0
    8.8620   -1.4920   80.3780 C   0  0  0  0  0  3  0  0  0  0  0  0
    9.5400   -1.4430   81.5880 C   0  0  0  0  0  2  0  0  0  0  0  0
    9.0320   -0.7180   82.6520 C   0  0  0  0  0  2  0  0  0  0  0  0
    7.8340   -0.0430   82.5240 C   0  0  0  0  0  2  0  0  0  0  0  0
    7.1600   -0.0680   81.3200 C   0  0  0  0  0  2  0  0  0  0  0  0
    7.6730   -0.7830   80.2510 C   0  0  0  0  0  2  0  0  0  0  0  0
    5.4350   -5.4580   74.6160 C   0  0  0  0  0  3  0  0  0  0  0  0
    6.2500   -6.4540   72.4410 C   0  0  0  0  0  3  0  0  0  0  0  0
    6.6510   -5.6380   70.4310 C   0  0  0  0  0  2  0  0  0  0  0  0
    6.8880   -7.9310   70.6850 C   0  0  0  0  0  3  0  0  0  0  0  0
    5.9570   -5.4290   78.0820 C   0  0  0  0  0  2  0  0  0  0  0  0
    6.5320   -7.7500   72.0330 C   0  0  0  0  0  3  0  0  0  0  0  0
    5.9750   -7.8820   74.0770 C   0  0  0  0  0  2  0  0  0  0  0  0
    7.4130   -5.2900   78.5100 C   0  0  0  0  0  3  0  0  0  0  0  0
    7.9440   -6.5830   79.1360 C   0  0  0  0  0  2  0  0  0  0  0  0
    7.2670   -7.0190   80.4340 C   0  0  0  0  0  2  0  0  0  0  0  0
    8.0320   -8.2090   81.0730 C   0  0  0  0  0  3  0  0  0  0  0  0
    7.3510   -8.4560   82.4600 C   0  0  0  0  0  3  0  0  0  0  0  0
    6.3130  -10.1200   83.9310 C   0  0  0  0  0  2  0  0  0  0  0  0
    6.7340   -9.6240   82.6260 N   0  0  0  0  0  2  0  0  0  0  0  0
    8.1620   -9.4260   80.2460 N   0  0  0  0  0  1  0  0  0  0  0  0
    9.0290   -3.7600   79.4220 N   0  0  0  0  0  2  0  0  0  0  0  0
    5.8720   -6.5520   73.7580 N   0  0  0  0  0  0  0  0  0  0  0  0
    6.3030   -5.3430   71.6900 N   0  0  0  0  0  2  0  0  0  0  0  0
    6.9430   -6.8300   69.8970 N   0  0  0  0  0  2  0  0  0  0  0  0
    7.1220   -9.1340   70.1350 N   0  0  0  0  0  1  0  0  0  0  0  0
    6.3610   -8.6430   73.0810 N   0  0  0  0  0  2  0  0  0  0  0  0
    3.0400   -5.1850   74.2920 O   0  0  0  0  0  1  0  0  0  0  0  0
    3.6910   -3.3540   76.2000 O   0  0  0  0  0  1  0  0  0  0  0  0
    7.3840   -7.5840   83.3260 O   0  0  0  0  0  1  0  0  0  0  0  0
    6.3010   -5.4020   75.7210 O   0  0  0  0  0  0  0  0  0  0  0  0
  1  2  1  0
  1 15  1  0
  1 36  1  0
  2  8  1  0
  2 37  1  0
  3  4  1  0
  3 27  1  0
  4  5  1  0
  6 22  1  0
  6 30  1  0
  7  9  1  0
  7 30  1  0
  8 19  1  0
  8 39  1  0
  9 10  1  0
  9 14  1  0
 10 11  1  0
 11 12  1  0
 12 13  1  0
 13 14  1  0
 15 31  1  0
 15 39  1  0
 16 20  1  0
 16 31  1  0
 16 32  1  0
 17 32  1  0
 17 33  1  0
 18 20  1  0
 18 33  1  0
 18 34  1  0
 19 22  1  0
 20 35  1  0
 21 31  1  0
 21 35  1  0
 22 23  1  0
 23 24  1  0
 24 25  1  0
 25 26  1  0
 25 29  1  0
 26 28  1  0
 26 38  1  0
 27 28  1  0
M  END
$$$$
