6d2l_D_FTG_2000
     RDKit          3D

 44 48  0  0  0  0  0  0  0  0999 V2000
  -19.3380  -21.3570   78.6090 C   0  0  0  0  0  3  0  0  0  0  0  0
  -19.3560  -21.6270   80.1230 C   0  0  0  0  0  3  0  0  0  0  0  0
  -19.9240  -14.2760   84.9990 C   0  0  0  0  0  2  0  0  0  0  0  0
  -18.9710  -13.6690   83.9990 C   0  0  0  0  0  3  0  0  0  0  0  0
  -18.5770  -12.3420   84.1090 C   0  0  0  0  0  2  0  0  0  0  0  0
  -17.8320  -11.7300   83.1150 C   0  0  0  0  0  2  0  0  0  0  0  0
  -17.4610  -12.4500   81.9930 C   0  0  0  0  0  3  0  0  0  0  0  0
  -17.8100  -13.7880   81.8850 C   0  0  0  0  0  2  0  0  0  0  0  0
  -18.5570  -14.3860   82.8870 C   0  0  0  0  0  2  0  0  0  0  0  0
  -22.5040  -21.2180   83.3560 C   0  0  0  0  0  2  0  0  0  0  0  0
  -23.9820  -23.0870   83.9860 C   0  0  0  0  0  2  0  0  0  0  0  0
  -20.8290  -21.4300   80.5070 C   0  0  0  0  0  3  0  0  0  0  0  0
  -23.8230  -23.1850   85.4820 C   0  0  0  0  0  3  0  0  0  0  0  0
  -24.8230  -22.7280   86.3320 C   0  0  0  0  0  2  0  0  0  0  0  0
  -24.6390  -22.7260   87.7040 C   0  0  0  0  0  2  0  0  0  0  0  0
  -23.4550  -23.1820   88.2440 C   0  0  0  0  0  2  0  0  0  0  0  0
  -22.4620  -23.6580   87.4120 C   0  0  0  0  0  2  0  0  0  0  0  0
  -22.6470  -23.6650   86.0400 C   0  0  0  0  0  2  0  0  0  0  0  0
  -20.7770  -21.7140   78.2240 C   0  0  0  0  0  3  0  0  0  0  0  0
  -21.6930  -21.7220   75.8360 C   0  0  0  0  0  3  0  0  0  0  0  0
  -22.2390  -23.2740   74.3560 C   0  0  0  0  0  2  0  0  0  0  0  0
  -22.5480  -21.0680   73.7060 C   0  0  0  0  0  3  0  0  0  0  0  0
  -21.1150  -20.2790   81.4490 C   0  0  0  0  0  2  0  0  0  0  0  0
  -22.0550  -20.6970   74.9730 C   0  0  0  0  0  3  0  0  0  0  0  0
  -21.3890  -19.7610   76.7590 C   0  0  0  0  0  2  0  0  0  0  0  0
  -22.4930  -20.3660   82.1010 C   0  0  0  0  0  3  0  0  0  0  0  0
  -23.1710  -18.9990   82.2240 C   0  0  0  0  0  2  0  0  0  0  0  0
  -22.3060  -17.8460   82.7060 C   0  0  0  0  0  2  0  0  0  0  0  0
  -23.2360  -16.6350   82.9270 C   0  0  0  0  0  3  0  0  0  0  0  0
  -22.5830  -15.8200   84.0590 C   0  0  0  0  0  3  0  0  0  0  0  0
  -21.3620  -13.8130   84.7530 C   0  0  0  0  0  2  0  0  0  0  0  0
  -22.0460  -14.6370   83.7650 N   0  0  0  0  0  2  0  0  0  0  0  0
  -23.5740  -15.8480   81.7320 N   0  0  0  0  0  1  0  0  0  0  0  0
  -23.8820  -21.7070   83.4930 N   0  0  0  0  0  2  0  0  0  0  0  0
  -21.2570  -21.1060   76.9860 N   0  0  0  0  0  0  0  0  0  0  0  0
  -21.7550  -23.0410   75.5850 N   0  0  0  0  0  2  0  0  0  0  0  0
  -22.6390  -22.3920   73.4280 N   0  0  0  0  0  2  0  0  0  0  0  0
  -22.8960  -20.1880   72.7580 N   0  0  0  0  0  1  0  0  0  0  0  0
  -21.8530  -19.4610   75.5690 N   0  0  0  0  0  2  0  0  0  0  0  0
  -18.3930  -22.1900   77.9470 O   0  0  0  0  0  1  0  0  0  0  0  0
  -18.9110  -22.9260   80.5070 O   0  0  0  0  0  1  0  0  0  0  0  0
  -16.7910  -11.8110   80.9870 O   0  0  0  0  0  1  0  0  0  0  0  0
  -22.5960  -16.2900   85.1910 O   0  0  0  0  0  1  0  0  0  0  0  0
  -21.5540  -21.2060   79.2820 O   0  0  0  0  0  0  0  0  0  0  0  0
  1  2  1  0
  1 19  1  0
  1 40  1  0
  2 12  1  0
  2 41  1  0
  3  4  1  0
  3 31  1  0
  4  5  1  0
  4  9  1  0
  5  6  1  0
  6  7  1  0
  7  8  1  0
  7 42  1  0
  8  9  1  0
 10 26  1  0
 10 34  1  0
 11 13  1  0
 11 34  1  0
 12 23  1  0
 12 44  1  0
 13 14  1  0
 13 18  1  0
 14 15  1  0
 15 16  1  0
 16 17  1  0
 17 18  1  0
 19 35  1  0
 19 44  1  0
 20 24  1  0
 20 35  1  0
 20 36  1  0
 21 36  1  0
 21 37  1  0
 22 24  1  0
 22 37  1  0
 22 38  1  0
 23 26  1  0
 24 39  1  0
 25 35  1  0
 25 39  1  0
 26 27  1  0
 27 28  1  0
 28 29  1  0
 29 30  1  0
 29 33  1  0
 30 32  1  0
 30 43  1  0
 31 32  1  0
M  END
$$$$
