6d2l_B_FTG_2000
     RDKit          3D

 44 48  0  0  0  0  0  0  0  0999 V2000
  -10.5270  -31.1310   44.8670 C   0  0  0  0  0  3  0  0  0  0  0  0
  -10.4690  -29.6540   44.4440 C   0  0  0  0  0  3  0  0  0  0  0  0
  -10.9430  -27.8790   35.7160 C   0  0  0  0  0  2  0  0  0  0  0  0
  -10.0420  -29.0820   35.6110 C   0  0  0  0  0  3  0  0  0  0  0  0
   -9.4330  -29.4100   34.4080 C   0  0  0  0  0  2  0  0  0  0  0  0
   -8.7160  -30.5880   34.2640 C   0  0  0  0  0  2  0  0  0  0  0  0
   -8.5970  -31.4550   35.3370 C   0  0  0  0  0  3  0  0  0  0  0  0
   -9.1710  -31.1270   36.5570 C   0  0  0  0  0  2  0  0  0  0  0  0
   -9.8860  -29.9460   36.6850 C   0  0  0  0  0  2  0  0  0  0  0  0
  -13.6800  -26.8330   42.8570 C   0  0  0  0  0  2  0  0  0  0  0  0
  -15.3570  -25.5150   44.0580 C   0  0  0  0  0  2  0  0  0  0  0  0
  -11.9300  -29.2880   44.1770 C   0  0  0  0  0  3  0  0  0  0  0  0
  -14.9330  -24.1340   43.6240 C   0  0  0  0  0  3  0  0  0  0  0  0
  -15.7970  -23.3280   42.8970 C   0  0  0  0  0  2  0  0  0  0  0  0
  -15.4200  -22.0510   42.5200 C   0  0  0  0  0  2  0  0  0  0  0  0
  -14.1690  -21.5680   42.8570 C   0  0  0  0  0  2  0  0  0  0  0  0
  -13.3040  -22.3600   43.5750 C   0  0  0  0  0  2  0  0  0  0  0  0
  -13.6820  -23.6360   43.9580 C   0  0  0  0  0  2  0  0  0  0  0  0
  -11.9600  -31.2660   45.3650 C   0  0  0  0  0  3  0  0  0  0  0  0
  -12.9480  -33.4110   46.3100 C   0  0  0  0  0  3  0  0  0  0  0  0
  -13.5010  -34.1210   48.3170 C   0  0  0  0  0  2  0  0  0  0  0  0
  -13.8300  -35.6090   46.5810 C   0  0  0  0  0  3  0  0  0  0  0  0
  -12.2480  -28.8860   42.7550 C   0  0  0  0  0  2  0  0  0  0  0  0
  -13.3450  -34.6030   45.7210 C   0  0  0  0  0  3  0  0  0  0  0  0
  -12.6910  -33.3470   44.1400 C   0  0  0  0  0  2  0  0  0  0  0  0
  -13.6550  -28.3210   42.5770 C   0  0  0  0  0  3  0  0  0  0  0  0
  -14.3050  -28.7670   41.2510 C   0  0  0  0  0  2  0  0  0  0  0  0
  -13.4870  -28.5280   39.9920 C   0  0  0  0  0  2  0  0  0  0  0  0
  -14.3140  -28.8690   38.7030 C   0  0  0  0  0  3  0  0  0  0  0  0
  -13.5960  -28.1330   37.5520 C   0  0  0  0  0  3  0  0  0  0  0  0
  -12.3710  -28.2700   35.4460 C   0  0  0  0  0  2  0  0  0  0  0  0
  -12.9990  -28.8650   36.6170 N   0  0  0  0  0  2  0  0  0  0  0  0
  -14.5640  -30.3010   38.4060 N   0  0  0  0  0  1  0  0  0  0  0  0
  -15.1010  -26.5340   43.0400 N   0  0  0  0  0  2  0  0  0  0  0  0
  -12.5130  -32.6120   45.2800 N   0  0  0  0  0  0  0  0  0  0  0  0
  -13.0040  -33.1060   47.6100 N   0  0  0  0  0  2  0  0  0  0  0  0
  -13.8980  -35.3240   47.8970 N   0  0  0  0  0  2  0  0  0  0  0  0
  -14.2090  -36.8290   46.1760 N   0  0  0  0  0  1  0  0  0  0  0  0
  -13.1830  -34.5460   44.3450 N   0  0  0  0  0  2  0  0  0  0  0  0
   -9.6040  -31.3770   45.9110 O   0  0  0  0  0  1  0  0  0  0  0  0
   -9.9660  -28.7630   45.4280 O   0  0  0  0  0  1  0  0  0  0  0  0
   -7.9440  -32.6420   35.1540 O   0  0  0  0  0  1  0  0  0  0  0  0
  -13.6060  -26.9090   37.5300 O   0  0  0  0  0  1  0  0  0  0  0  0
  -12.7120  -30.4470   44.5110 O   0  0  0  0  0  0  0  0  0  0  0  0
  1  2  1  0
  1 19  1  0
  1 40  1  0
  2 12  1  0
  2 41  1  0
  3  4  1  0
  3 31  1  0
  4  5  1  0
  4  9  1  0
  5  6  1  0
  6  7  1  0
  7  8  1  0
  7 42  1  0
  8  9  1  0
 10 26  1  0
 10 34  1  0
 11 13  1  0
 11 34  1  0
 12 23  1  0
 12 44  1  0
 13 14  1  0
 13 18  1  0
 14 15  1  0
 15 16  1  0
 16 17  1  0
 17 18  1  0
 19 35  1  0
 19 44  1  0
 20 24  1  0
 20 35  1  0
 20 36  1  0
 21 36  1  0
 21 37  1  0
 22 24  1  0
 22 37  1  0
 22 38  1  0
 23 26  1  0
 24 39  1  0
 25 35  1  0
 25 39  1  0
 26 27  1  0
 27 28  1  0
 28 29  1  0
 29 30  1  0
 29 33  1  0
 30 32  1  0
 30 43  1  0
 31 32  1  0
M  END
$$$$
