6dvr_B_HDG_501
     RDKit          3D

 45 49  0  0  0  0  0  0  0  0999 V2000
  -26.3400  -23.3470  -38.6880 C   0  0  0  0  0  3  0  0  0  0  0  0
  -26.5330  -21.8530  -38.4000 C   0  0  0  0  0  3  0  0  0  0  0  0
  -29.1890  -20.1170  -31.4840 C   0  0  0  0  0  2  0  0  0  0  0  0
  -30.2820  -19.0850  -31.3200 C   0  0  0  0  0  3  0  0  0  0  0  0
  -31.1010  -19.0900  -30.1990 C   0  0  0  0  0  2  0  0  0  0  0  0
  -32.0990  -18.1450  -30.0360 C   0  0  0  0  0  2  0  0  0  0  0  0
  -32.2940  -17.1730  -31.0070 C   0  0  0  0  0  3  0  0  0  0  0  0
  -34.1760  -16.2440  -29.8430 C   0  0  0  0  0  1  0  0  0  0  0  0
  -31.4620  -17.1310  -32.1150 C   0  0  0  0  0  2  0  0  0  0  0  0
  -30.4760  -18.0910  -32.2730 C   0  0  0  0  0  2  0  0  0  0  0  0
  -24.1530  -18.6960  -36.6880 C   0  0  0  0  0  2  0  0  0  0  0  0
  -23.2420  -16.5890  -37.3320 C   0  0  0  0  0  2  0  0  0  0  0  0
  -25.1600  -21.4090  -37.8830 C   0  0  0  0  0  3  0  0  0  0  0  0
  -22.8330  -15.2780  -36.7050 C   0  0  0  0  0  3  0  0  0  0  0  0
  -21.5050  -15.0320  -36.3800 C   0  0  0  0  0  2  0  0  0  0  0  0
  -21.1350  -13.8470  -35.7630 C   0  0  0  0  0  2  0  0  0  0  0  0
  -22.0840  -12.8840  -35.4830 C   0  0  0  0  0  2  0  0  0  0  0  0
  -23.4050  -13.1120  -35.8090 C   0  0  0  0  0  2  0  0  0  0  0  0
  -23.7790  -14.3000  -36.4160 C   0  0  0  0  0  2  0  0  0  0  0  0
  -24.8620  -23.3890  -39.0450 C   0  0  0  0  0  3  0  0  0  0  0  0
  -23.6090  -25.4430  -39.8740 C   0  0  0  0  0  3  0  0  0  0  0  0
  -22.7290  -26.0520  -41.8040 C   0  0  0  0  0  2  0  0  0  0  0  0
  -22.3530  -27.4640  -40.0060 C   0  0  0  0  0  3  0  0  0  0  0  0
  -25.1310  -21.0580  -36.4060 C   0  0  0  0  0  2  0  0  0  0  0  0
  -23.1030  -26.5600  -39.2270 C   0  0  0  0  0  3  0  0  0  0  0  0
  -24.0780  -25.4050  -37.7380 C   0  0  0  0  0  2  0  0  0  0  0  0
  -24.0990  -20.0250  -35.9450 C   0  0  0  0  0  3  0  0  0  0  0  0
  -24.2420  -19.7370  -34.4330 C   0  0  0  0  0  2  0  0  0  0  0  0
  -24.3770  -20.9980  -33.5680 C   0  0  0  0  0  2  0  0  0  0  0  0
  -24.2510  -20.6890  -32.0120 C   0  0  0  0  0  3  0  0  0  0  0  0
  -25.4680  -19.8750  -31.5260 C   0  0  0  0  0  3  0  0  0  0  0  0
  -27.8390  -19.4990  -31.1760 C   0  0  0  0  0  2  0  0  0  0  0  0
  -23.0130  -19.9250  -31.7350 N   0  0  0  0  0  1  0  0  0  0  0  0
  -26.7030  -20.3770  -31.4430 N   0  0  0  0  0  2  0  0  0  0  0  0
  -23.0530  -17.7560  -36.4480 N   0  0  0  0  0  2  0  0  0  0  0  0
  -24.2250  -24.6950  -38.9010 N   0  0  0  0  0  0  0  0  0  0  0  0
  -23.4820  -25.1430  -41.1730 N   0  0  0  0  0  2  0  0  0  0  0  0
  -22.1600  -27.1610  -41.3090 N   0  0  0  0  0  2  0  0  0  0  0  0
  -21.8520  -28.6170  -39.5290 N   0  0  0  0  0  1  0  0  0  0  0  0
  -23.4190  -26.5290  -37.8770 N   0  0  0  0  0  2  0  0  0  0  0  0
  -27.1720  -23.8200  -39.7390 O   0  0  0  0  0  1  0  0  0  0  0  0
  -26.9560  -21.1100  -39.5390 O   0  0  0  0  0  1  0  0  0  0  0  0
  -33.2940  -16.2350  -30.9690 O   0  0  0  0  0  0  0  0  0  0  0  0
  -25.2260  -18.7130  -31.2330 O   0  0  0  0  0  1  0  0  0  0  0  0
  -24.2570  -22.5090  -38.1270 O   0  0  0  0  0  0  0  0  0  0  0  0
  1  2  1  0
  1 20  1  0
  1 41  1  0
  2 13  1  0
  2 42  1  0
  3  4  1  0
  3 32  1  0
  4  5  1  0
  4 10  1  0
  5  6  1  0
  6  7  1  0
  7  9  1  0
  7 43  1  0
  8 43  1  0
  9 10  1  0
 11 27  1  0
 11 35  1  0
 12 14  1  0
 12 35  1  0
 13 24  1  0
 13 45  1  0
 14 15  1  0
 14 19  1  0
 15 16  1  0
 16 17  1  0
 17 18  1  0
 18 19  1  0
 20 36  1  0
 20 45  1  0
 21 25  1  0
 21 36  1  0
 21 37  1  0
 22 37  1  0
 22 38  1  0
 23 25  1  0
 23 38  1  0
 23 39  1  0
 24 27  1  0
 25 40  1  0
 26 36  1  0
 26 40  1  0
 27 28  1  0
 28 29  1  0
 29 30  1  0
 30 31  1  0
 30 33  1  0
 31 34  1  0
 31 44  1  0
 32 34  1  0
M  END
$$$$
