6s71_D_KYE_501
     RDKit          3D

 35 37  0  0  0  0  0  0  0  0999 V2000
  -11.1370   27.0980  -13.6000 C   0  0  0  0  0  3  0  0  0  0  0  0
  -11.2840   25.8800  -13.3940 C   0  0  0  0  0  3  0  0  0  0  0  0
  -12.8300   25.7670  -12.8640 C   0  0  0  0  0  3  0  0  0  0  0  0
  -13.9580   23.7280  -12.0410 C   0  0  0  0  0  3  0  0  0  0  0  0
  -14.7030   23.0180  -10.0000 C   0  0  0  0  0  2  0  0  0  0  0  0
  -15.0190   21.6400  -11.7920 C   0  0  0  0  0  3  0  0  0  0  0  0
  -14.3930   22.6070  -12.6110 C   0  0  0  0  0  3  0  0  0  0  0  0
  -13.5120   23.8090  -14.1360 C   0  0  0  0  0  2  0  0  0  0  0  0
  -12.5340   27.6460  -14.0250 C   0  0  0  0  0  3  0  0  0  0  0  0
  -12.5070   27.9540  -15.4040 C   0  0  0  0  0  2  0  0  0  0  0  0
  -13.2140   30.2900  -14.9760 C   0  0  0  0  0  2  0  0  0  0  0  0
  -14.5560   31.0110  -14.9640 C   0  0  0  0  0  2  0  0  0  0  0  0
  -14.8070   31.8430  -13.7290 C   0  0  0  0  0  3  0  0  0  0  0  0
  -13.6870   32.8650  -13.5310 C   0  0  0  0  0  3  0  0  0  0  0  0
  -13.0030   29.6090  -17.1600 C   0  0  0  0  0  2  0  0  0  0  0  0
  -13.2720   28.5700  -18.2360 C   0  0  0  0  0  2  0  0  0  0  0  0
  -13.5420   29.1700  -19.6030 C   0  0  0  0  0  2  0  0  0  0  0  0
  -12.3260   29.6980  -20.3480 C   0  0  0  0  0  2  0  0  0  0  0  0
  -12.7600   30.8920  -21.1900 C   0  0  0  0  0  2  0  0  0  0  0  0
  -11.7420   32.9020  -21.9990 C   0  0  0  0  0  3  0  0  0  0  0  0
  -13.4000   24.4590  -13.0010 N   0  0  0  0  0  0  0  0  0  0  0  0
  -14.1170   23.9120  -10.7360 N   0  0  0  0  0  2  0  0  0  0  0  0
  -15.1560   21.9030  -10.5140 N   0  0  0  0  0  2  0  0  0  0  0  0
  -15.4930   20.4030  -12.3710 N   0  0  0  0  0  1  0  0  0  0  0  0
  -14.1070   22.6750  -13.9080 N   0  0  0  0  0  2  0  0  0  0  0  0
  -13.3320   29.1050  -15.8300 N   0  0  0  0  0  0  0  0  0  0  0  0
  -16.0330   32.5310  -13.9380 N   0  0  0  0  0  1  0  0  0  0  0  0
  -11.7110   31.5850  -21.8940 N   0  0  0  0  0  2  0  0  0  0  0  0
  -12.6970   33.6130  -21.4560 N   0  0  0  0  0  1  0  0  0  0  0  0
  -10.8180   33.5400  -22.6540 N   0  0  0  0  0  1  0  0  0  0  0  0
  -10.7410   27.9220  -12.4270 O   0  0  0  0  0  1  0  0  0  0  0  0
  -10.3460   25.2910  -12.4320 O   0  0  0  0  0  1  0  0  0  0  0  0
  -13.4560   26.5320  -13.6340 O   0  0  0  0  0  0  0  0  0  0  0  0
  -12.4390   32.4940  -13.6370 O   0  0  0  0  0  1  0  0  0  0  0  0
  -13.9370   34.1610  -13.4350 O   0  0  0  0  0  1  0  0  0  0  0  0
  1  2  1  0
  1  9  1  0
  1 31  1  0
  2  3  1  0
  2 32  1  0
  3 21  1  0
  3 33  1  0
  4  7  1  0
  4 21  1  0
  4 22  1  0
  5 22  1  0
  5 23  1  0
  6  7  1  0
  6 23  1  0
  6 24  1  0
  7 25  1  0
  8 21  1  0
  8 25  1  0
  9 10  1  0
  9 33  1  0
 10 26  1  0
 11 12  1  0
 11 26  1  0
 12 13  1  0
 13 14  1  0
 13 27  1  0
 14 34  1  0
 14 35  1  0
 15 16  1  0
 15 26  1  0
 16 17  1  0
 17 18  1  0
 18 19  1  0
 19 28  1  0
 20 28  1  0
 20 29  1  0
 20 30  1  0
M  END
$$$$
