7fai_B_XJ3_501
     RDKit          3D

 33 36  0  0  0  0  0  0  0  0999 V2000
  -13.3010   15.6140  231.4890 C   0  0  0  0  0  1  0  0  0  0  0  0
   -7.8780   22.6120  230.8340 C   0  0  0  0  0  3  0  0  0  0  0  0
   -5.6240   23.1240  230.6720 C   0  0  0  0  0  3  0  0  0  0  0  0
   -4.6160   24.6890  232.3570 C   0  0  0  0  0  3  0  0  0  0  0  0
   -4.9630   26.0320  231.8760 C   0  0  0  0  0  2  0  0  0  0  0  0
   -4.6250   27.1830  232.8210 C   0  0  0  0  0  2  0  0  0  0  0  0
   -3.1840   25.7580  234.1480 C   0  0  0  0  0  2  0  0  0  0  0  0
   -3.4090   24.5780  233.2020 C   0  0  0  0  0  2  0  0  0  0  0  0
   -5.5030   22.2440  229.5910 C   0  0  0  0  0  3  0  0  0  0  0  0
   -4.1360   22.0660  228.9310 C   0  0  0  0  0  1  0  0  0  0  0  0
   -6.6600   21.5650  229.1560 C   0  0  0  0  0  3  0  0  0  0  0  0
   -6.6220   20.5680  227.9340 C   0  0  0  0  0  3  0  0  0  0  0  0
   -6.3160   20.8730  226.6210 C   0  0  0  0  0  3  0  0  0  0  0  0
   -5.9180   22.2320  226.0300 C   0  0  0  0  0  1  0  0  0  0  0  0
   -6.9390   19.1990  228.0110 C   0  0  0  0  0  3  0  0  0  0  0  0
   -7.3430   18.4340  229.2790 C   0  0  0  0  0  1  0  0  0  0  0  0
  -12.5530   17.5980  232.6350 C   0  0  0  0  0  2  0  0  0  0  0  0
   -9.6120   24.0670  232.0420 C   0  0  0  0  0  2  0  0  0  0  0  0
  -10.8510   24.2550  232.6410 C   0  0  0  0  0  2  0  0  0  0  0  0
  -11.7560   23.1880  232.7190 C   0  0  0  0  0  2  0  0  0  0  0  0
  -13.0280   18.7640  233.5500 C   0  0  0  0  0  2  0  0  0  0  0  0
  -12.3810   20.7230  232.2810 C   0  0  0  0  0  2  0  0  0  0  0  0
  -11.4000   21.9470  232.1940 C   0  0  0  0  0  3  0  0  0  0  0  0
  -10.1460   21.7630  231.6080 C   0  0  0  0  0  2  0  0  0  0  0  0
   -9.2590   22.8240  231.5240 C   0  0  0  0  0  3  0  0  0  0  0  0
  -12.0670   19.8950  233.4770 N   0  0  0  0  0  2  0  0  0  0  0  0
   -6.8090   23.2910  231.2610 N   0  0  0  0  0  2  0  0  0  0  0  0
   -4.4260   23.8560  231.1700 N   0  0  0  0  0  2  0  0  0  0  0  0
  -13.5670   16.5100  232.6280 N   0  0  0  0  0  2  0  0  0  0  0  0
   -6.7960   18.6970  226.7670 N   0  0  0  0  0  2  0  0  0  0  0  0
   -7.8150   21.7620  229.8080 N   0  0  0  0  0  2  0  0  0  0  0  0
   -3.3210   27.0360  233.4610 O   0  0  0  0  0  0  0  0  0  0  0  0
   -6.4250   19.7400  225.9460 O   0  0  0  0  0  0  0  0  0  0  0  0
  1 29  1  0
  2 25  1  0
  2 27  1  0
  2 31  1  0
  3  9  1  0
  3 27  1  0
  3 28  1  0
  4  5  1  0
  4  8  1  0
  4 28  1  0
  5  6  1  0
  6 32  1  0
  7  8  1  0
  7 32  1  0
  9 10  1  0
  9 11  1  0
 11 12  1  0
 11 31  1  0
 12 13  1  0
 12 15  1  0
 13 14  1  0
 13 33  1  0
 15 16  1  0
 15 30  1  0
 17 21  1  0
 17 29  1  0
 18 19  1  0
 18 25  1  0
 19 20  1  0
 20 23  1  0
 21 26  1  0
 22 23  1  0
 22 26  1  0
 23 24  1  0
 24 25  1  0
 30 33  1  0
M  END
$$$$
