7ppq_C_LSK_501
     RDKit          3D

 82 86  0  0  0  0  0  0  0  0999 V2000
   32.7130   25.7920  186.0690 C   0  0  0  0  0  3  0  0  0  0  0  0
   31.4730   26.1110  182.5610 C   0  0  0  0  0  3  0  0  0  0  0  0
   33.7270   25.0040  186.8230 C   0  0  0  0  0  3  0  0  0  0  0  0
   34.8570   25.9910  188.6650 C   0  0  0  0  0  0  0  0  0  0  0  0
   27.7340   27.9430  181.1110 C   0  0  0  0  0  3  0  0  0  0  0  0
   26.4040   27.6090  179.0790 C   0  0  0  0  0  0  0  0  0  0  0  0
   25.0130   28.1090  179.5440 C   0  0  0  0  0  0  0  0  0  0  0  0
   24.5920   29.4600  178.8870 C   0  0  0  0  0  0  0  0  0  0  0  0
   24.9320   33.7240  180.5820 C   0  0  0  0  0  3  0  0  0  0  0  0
   25.4640   36.1300  180.6550 C   0  0  0  0  0  0  0  0  0  0  0  0
   26.1500   37.2730  179.9230 C   0  0  0  0  0  0  0  0  0  0  0  0
   31.9380   26.7520  186.7180 C   0  0  0  0  0  3  0  0  0  0  0  0
   27.6700   37.1550  179.7460 C   0  0  0  0  0  0  0  0  0  0  0  0
   28.2120   37.9030  180.9730 C   0  0  0  0  0  0  0  0  0  0  0  0
   27.2030   39.0600  181.0330 C   0  0  0  0  0  0  0  0  0  0  0  0
   26.9920   39.0720  183.5500 C   0  0  0  0  0  3  0  0  0  0  0  0
   26.8310   41.1340  183.9800 C   0  0  0  0  0  3  0  0  0  0  0  0
   26.7080   42.4240  184.5160 C   0  0  0  0  0  3  0  0  0  0  0  0
   26.8430   43.2060  182.3470 C   0  0  0  0  0  3  0  0  0  0  0  0
   26.9560   41.0360  182.6070 C   0  0  0  0  0  3  0  0  0  0  0  0
   24.7150   30.7310  179.7490 C   0  0  0  0  0  0  0  0  0  0  0  0
   24.0850   31.9500  179.0540 C   0  0  0  0  0  0  0  0  0  0  0  0
   31.0130   27.4890  186.0200 C   0  0  0  0  0  3  0  0  0  0  0  0
   30.8260   27.2960  184.6000 C   0  0  0  0  0  3  0  0  0  0  0  0
   31.6350   26.3200  183.9530 C   0  0  0  0  0  3  0  0  0  0  0  0
   32.5750   25.5880  184.7180 C   0  0  0  0  0  3  0  0  0  0  0  0
   29.8910   28.0220  183.8070 C   0  0  0  0  0  3  0  0  0  0  0  0
   29.7790   27.8060  182.4530 C   0  0  0  0  0  3  0  0  0  0  0  0
   30.5610   26.8290  181.8440 C   0  0  0  0  0  3  0  0  0  0  0  0
   27.9890   36.1190  179.7110 H   0  0  0  0  0  0  0  0  0  0  0  0
   24.8990   28.1900  180.6270 H   0  0  0  0  0  0  0  0  0  0  0  0
   24.2660   27.3180  179.3460 H   0  0  0  0  0  0  0  0  0  0  0  0
   32.0820   26.9010  187.7920 H   0  0  0  0  0  0  0  0  0  0  0  0
   32.0970   25.3530  182.0730 H   0  0  0  0  0  0  0  0  0  0  0  0
   33.1780   24.8380  184.1980 H   0  0  0  0  0  0  0  0  0  0  0  0
   29.5620   29.0040  186.2200 H   0  0  0  0  0  0  0  0  0  0  0  0
   35.8550   26.3510  188.9060 H   0  0  0  0  0  0  0  0  0  0  0  0
   34.6650   25.1170  189.2950 H   0  0  0  0  0  0  0  0  0  0  0  0
   34.1390   26.7860  188.8770 H   0  0  0  0  0  0  0  0  0  0  0  0
   27.3670   39.8390  180.2940 H   0  0  0  0  0  0  0  0  0  0  0  0
   25.6390   37.4600  178.9680 H   0  0  0  0  0  0  0  0  0  0  0  0
   27.0320   38.0290  183.6690 H   0  0  0  0  0  0  0  0  0  0  0  0
   26.8480   44.0830  181.7050 H   0  0  0  0  0  0  0  0  0  0  0  0
   24.2770   30.5320  180.7290 H   0  0  0  0  0  0  0  0  0  0  0  0
   25.7590   30.9000  180.0110 H   0  0  0  0  0  0  0  0  0  0  0  0
   24.6590   32.2510  178.1760 H   0  0  0  0  0  0  0  0  0  0  0  0
   23.1400   31.6370  178.5970 H   0  0  0  0  0  0  0  0  0  0  0  0
   29.2570   28.7850  184.2430 H   0  0  0  0  0  0  0  0  0  0  0  0
   30.4650   26.6430  180.7670 H   0  0  0  0  0  0  0  0  0  0  0  0
   29.0370   29.5180  181.5890 H   0  0  0  0  0  0  0  0  0  0  0  0
   28.1340   28.8410  179.2480 H   0  0  0  0  0  0  0  0  0  0  0  0
   25.8690   36.0620  181.6720 H   0  0  0  0  0  0  0  0  0  0  0  0
   22.9910   33.3300  180.2820 H   0  0  0  0  0  0  0  0  0  0  0  0
   26.0540   34.7020  179.1540 H   0  0  0  0  0  0  0  0  0  0  0  0
   25.8970   33.6300  182.3690 H   0  0  0  0  0  0  0  0  0  0  0  0
   26.4920   43.6190  186.2190 H   0  0  0  0  0  0  0  0  0  0  0  0
   26.5690   41.9290  186.5170 H   0  0  0  0  0  0  0  0  0  0  0  0
   27.6000   38.5170  178.2200 H   0  0  0  0  0  0  0  0  0  0  0  0
   29.7020   38.8230  179.9640 H   0  0  0  0  0  0  0  0  0  0  0  0
   24.3970   36.3280  180.7870 H   0  0  0  0  0  0  0  0  0  0  0  0
   28.2060   37.2580  181.8610 H   0  0  0  0  0  0  0  0  0  0  0  0
   25.1750   29.6330  177.9810 H   0  0  0  0  0  0  0  0  0  0  0  0
   23.5630   29.4090  178.5020 H   0  0  0  0  0  0  0  0  0  0  0  0
   26.5280   26.5240  179.1780 H   0  0  0  0  0  0  0  0  0  0  0  0
   26.4710   27.6970  177.9850 H   0  0  0  0  0  0  0  0  0  0  0  0
   28.8340   28.5200  181.6780 N   0  0  0  0  0  0  0  0  0  0  0  0
   26.9670   42.0370  181.7340 N   0  0  0  0  0  2  0  0  0  0  0  0
   27.5250   28.2150  179.7980 N   0  0  0  0  0  0  0  0  0  0  0  0
   23.9280   33.1170  179.9150 N   0  0  0  0  0  0  0  0  0  0  0  0
   25.5340   34.8130  180.0270 N   0  0  0  0  0  0  0  0  0  0  0  0
   25.1670   33.2520  181.7660 N   0  0  0  0  0  2  0  0  0  0  0  0
   27.0590   39.6970  182.3380 N   0  0  0  0  0  0  0  0  0  0  0  0
   26.8640   39.8820  184.5660 N   0  0  0  0  0  2  0  0  0  0  0  0
   26.5850   42.6810  185.8310 N   0  0  0  0  0  0  0  0  0  0  0  0
   26.7160   43.4520  183.6460 N   0  0  0  0  0  2  0  0  0  0  0  0
   30.2510   28.4500  186.6560 O   0  0  0  0  0  0  0  0  0  0  0  0
   34.7490   25.7590  187.2350 O   0  0  0  0  0  0  0  0  0  0  0  0
   33.6730   23.8130  186.9970 O   0  0  0  0  0  1  0  0  0  0  0  0
   27.0140   27.1810  181.7410 O   0  0  0  0  0  1  0  0  0  0  0  0
   28.1840   37.7910  178.5860 O   0  0  0  0  0  0  0  0  0  0  0  0
   29.5550   38.3790  180.8450 O   0  0  0  0  0  0  0  0  0  0  0  0
   25.9580   38.5020  180.6660 O   0  0  0  0  0  0  0  0  0  0  0  0
  1  3  1  0
  1 12  1  0
  1 26  1  0
  2 25  1  0
  2 29  1  0
  2 34  1  0
  3 77  1  0
  3 78  1  0
  4 37  1  0
  4 38  1  0
  4 39  1  0
  4 77  1  0
  5 66  1  0
  5 68  1  0
  5 79  1  0
  6  7  1  0
  6 64  1  0
  6 65  1  0
  6 68  1  0
  7  8  1  0
  7 31  1  0
  7 32  1  0
  8 21  1  0
  8 62  1  0
  8 63  1  0
  9 69  1  0
  9 70  1  0
  9 71  1  0
 10 11  1  0
 10 52  1  0
 10 60  1  0
 10 70  1  0
 11 13  1  0
 11 41  1  0
 11 82  1  0
 12 23  1  0
 12 33  1  0
 13 14  1  0
 13 30  1  0
 13 80  1  0
 14 15  1  0
 14 61  1  0
 14 81  1  0
 15 40  1  0
 15 72  1  0
 15 82  1  0
 16 42  1  0
 16 72  1  0
 16 73  1  0
 17 18  1  0
 17 20  1  0
 17 73  1  0
 18 74  1  0
 18 75  1  0
 19 43  1  0
 19 67  1  0
 19 75  1  0
 20 67  1  0
 20 72  1  0
 21 22  1  0
 21 44  1  0
 21 45  1  0
 22 46  1  0
 22 47  1  0
 22 69  1  0
 23 24  1  0
 23 76  1  0
 24 25  1  0
 24 27  1  0
 25 26  1  0
 26 35  1  0
 27 28  1  0
 27 48  1  0
 28 29  1  0
 28 66  1  0
 29 49  1  0
 36 76  1  0
 50 66  1  0
 51 68  1  0
 53 69  1  0
 54 70  1  0
 55 71  1  0
 56 74  1  0
 57 74  1  0
 58 80  1  0
 59 81  1  0
M  END
$$$$
