7puc_C_85U_501
     RDKit          3D

 83 87  0  0  0  0  0  0  0  0999 V2000
   34.4830   26.7220  188.4560 C   0  0  0  0  0  3  0  0  0  0  0  0
   31.9290   25.1140  186.2560 C   0  0  0  0  0  3  0  0  0  0  0  0
   35.1430   26.4830  189.7710 C   0  0  0  0  0  3  0  0  0  0  0  0
   35.9590   27.9600  191.4280 C   0  0  0  0  0  0  0  0  0  0  0  0
   29.7600   26.3370  182.5950 C   0  0  0  0  0  3  0  0  0  0  0  0
   27.3920   27.0320  182.5070 C   0  0  0  0  0  0  0  0  0  0  0  0
   26.7810   28.3010  181.9470 C   0  0  0  0  0  0  0  0  0  0  0  0
   25.5010   28.0690  181.1550 C   0  0  0  0  0  0  0  0  0  0  0  0
   24.5940   31.7270  180.9580 C   0  0  0  0  0  3  0  0  0  0  0  0
   25.9570   35.8230  181.7820 C   0  0  0  0  0  3  0  0  0  0  0  0
   26.3390   37.0260  180.9760 C   0  0  0  0  0  0  0  0  0  0  0  0
   34.8080   27.8480  187.6970 C   0  0  0  0  0  3  0  0  0  0  0  0
   27.8380   37.1230  180.6600 C   0  0  0  0  0  0  0  0  0  0  0  0
   28.3480   37.8670  181.8950 C   0  0  0  0  0  0  0  0  0  0  0  0
   27.2460   38.9110  182.0360 C   0  0  0  0  0  0  0  0  0  0  0  0
   27.0430   38.7630  184.5580 C   0  0  0  0  0  3  0  0  0  0  0  0
   26.8620   40.8040  185.1070 C   0  0  0  0  0  3  0  0  0  0  0  0
   26.7250   42.0660  185.7180 C   0  0  0  0  0  3  0  0  0  0  0  0
   26.8640   42.9830  183.5970 C   0  0  0  0  0  3  0  0  0  0  0  0
   26.9880   40.7850  183.7260 C   0  0  0  0  0  3  0  0  0  0  0  0
   24.5400   29.2530  181.1190 C   0  0  0  0  0  0  0  0  0  0  0  0
   24.5950   33.8010  182.3470 C   0  0  0  0  0  0  0  0  0  0  0  0
   34.1970   28.0720  186.4870 C   0  0  0  0  0  3  0  0  0  0  0  0
   24.9410   35.0180  181.5370 C   0  0  0  0  0  3  0  0  0  0  0  0
   33.2230   27.1660  185.9770 C   0  0  0  0  0  3  0  0  0  0  0  0
   32.8960   26.0200  186.7550 C   0  0  0  0  0  3  0  0  0  0  0  0
   33.5470   25.8260  187.9950 C   0  0  0  0  0  3  0  0  0  0  0  0
   32.5650   27.3530  184.7350 C   0  0  0  0  0  3  0  0  0  0  0  0
   31.6220   26.4540  184.2850 C   0  0  0  0  0  3  0  0  0  0  0  0
   31.3200   25.3310  185.0540 C   0  0  0  0  0  3  0  0  0  0  0  0
   35.5510   28.5450  188.0820 H   0  0  0  0  0  0  0  0  0  0  0  0
   36.8440   27.7000  192.0060 H   0  0  0  0  0  0  0  0  0  0  0  0
   28.9830   28.0660  183.4300 H   0  0  0  0  0  0  0  0  0  0  0  0
   26.8100   26.6940  183.3620 H   0  0  0  0  0  0  0  0  0  0  0  0
   27.3170   26.2220  181.7830 H   0  0  0  0  0  0  0  0  0  0  0  0
   27.5100   28.8230  181.3280 H   0  0  0  0  0  0  0  0  0  0  0  0
   26.5640   29.0000  182.7530 H   0  0  0  0  0  0  0  0  0  0  0  0
   24.9820   27.1960  181.5470 H   0  0  0  0  0  0  0  0  0  0  0  0
   25.7830   27.7750  180.1450 H   0  0  0  0  0  0  0  0  0  0  0  0
   25.8200   30.4470  179.9600 H   0  0  0  0  0  0  0  0  0  0  0  0
   25.9160   32.1890  182.4120 H   0  0  0  0  0  0  0  0  0  0  0  0
   33.2730   24.9390  188.5650 H   0  0  0  0  0  0  0  0  0  0  0  0
   23.0260   31.4230  179.7840 H   0  0  0  0  0  0  0  0  0  0  0  0
   26.6160   35.6270  182.6260 H   0  0  0  0  0  0  0  0  0  0  0  0
   25.7430   37.0400  180.0640 H   0  0  0  0  0  0  0  0  0  0  0  0
   28.2990   36.1440  180.5870 H   0  0  0  0  0  0  0  0  0  0  0  0
   28.4760   37.2230  178.8230 H   0  0  0  0  0  0  0  0  0  0  0  0
   28.3730   37.1910  182.7480 H   0  0  0  0  0  0  0  0  0  0  0  0
   30.2710   37.8770  182.1990 H   0  0  0  0  0  0  0  0  0  0  0  0
   27.3580   39.7470  181.3490 H   0  0  0  0  0  0  0  0  0  0  0  0
   27.1010   37.6770  184.5980 H   0  0  0  0  0  0  0  0  0  0  0  0
   26.5040   43.1710  187.4420 H   0  0  0  0  0  0  0  0  0  0  0  0
   32.8220   28.2330  184.1470 H   0  0  0  0  0  0  0  0  0  0  0  0
   26.5920   41.4460  187.6620 H   0  0  0  0  0  0  0  0  0  0  0  0
   26.8560   43.9030  183.0140 H   0  0  0  0  0  0  0  0  0  0  0  0
   24.0700   29.3730  182.0940 H   0  0  0  0  0  0  0  0  0  0  0  0
   23.7060   29.0250  180.4570 H   0  0  0  0  0  0  0  0  0  0  0  0
   23.5130   33.6920  182.4030 H   0  0  0  0  0  0  0  0  0  0  0  0
   24.8950   33.9680  183.3800 H   0  0  0  0  0  0  0  0  0  0  0  0
   24.2850   35.1990  180.6870 H   0  0  0  0  0  0  0  0  0  0  0  0
   30.5790   24.6160  184.7000 H   0  0  0  0  0  0  0  0  0  0  0  0
   31.6740   24.2360  186.8480 H   0  0  0  0  0  0  0  0  0  0  0  0
   35.1660   29.7090  186.1650 H   0  0  0  0  0  0  0  0  0  0  0  0
   31.5880   27.2030  182.3670 H   0  0  0  0  0  0  0  0  0  0  0  0
   35.0680   27.6190  191.9540 H   0  0  0  0  0  0  0  0  0  0  0  0
   35.9160   29.0380  191.2800 H   0  0  0  0  0  0  0  0  0  0  0  0
   31.0120   26.6970  183.0300 N   0  0  0  0  0  0  0  0  0  0  0  0
   26.9980   41.8450  182.9090 N   0  0  0  0  0  2  0  0  0  0  0  0
   28.7840   27.2230  182.9000 N   0  0  0  0  0  0  0  0  0  0  0  0
   25.1700   30.5110  180.7370 N   0  0  0  0  0  0  0  0  0  0  0  0
   25.2180   32.6000  181.8010 N   0  0  0  0  0  0  0  0  0  0  0  0
   23.4750   32.0870  180.4070 N   0  0  0  0  0  2  0  0  0  0  0  0
   27.0990   39.4610  183.3790 N   0  0  0  0  0  0  0  0  0  0  0  0
   26.8970   39.5170  185.6200 N   0  0  0  0  0  2  0  0  0  0  0  0
   26.5950   42.2450  187.0360 N   0  0  0  0  0  0  0  0  0  0  0  0
   26.7300   43.1540  184.9160 N   0  0  0  0  0  2  0  0  0  0  0  0
   34.4790   29.1570  185.7080 O   0  0  0  0  0  0  0  0  0  0  0  0
   36.0270   27.4360  190.0780 O   0  0  0  0  0  0  0  0  0  0  0  0
   34.9180   25.5320  190.4790 O   0  0  0  0  0  1  0  0  0  0  0  0
   29.5460   25.3210  181.9390 O   0  0  0  0  0  1  0  0  0  0  0  0
   28.0500   37.8550  179.4590 O   0  0  0  0  0  0  0  0  0  0  0  0
   29.6250   38.4850  181.7530 O   0  0  0  0  0  0  0  0  0  0  0  0
   26.0420   38.2480  181.6840 O   0  0  0  0  0  0  0  0  0  0  0  0
  1  3  1  0
  1 12  1  0
  1 27  1  0
  2 26  1  0
  2 30  1  0
  2 62  1  0
  3 78  1  0
  3 79  1  0
  4 32  1  0
  4 65  1  0
  4 66  1  0
  4 78  1  0
  5 67  1  0
  5 69  1  0
  5 80  1  0
  6  7  1  0
  6 34  1  0
  6 35  1  0
  6 69  1  0
  7  8  1  0
  7 36  1  0
  7 37  1  0
  8 21  1  0
  8 38  1  0
  8 39  1  0
  9 70  1  0
  9 71  1  0
  9 72  1  0
 10 11  1  0
 10 24  1  0
 10 44  1  0
 11 13  1  0
 11 45  1  0
 11 83  1  0
 12 23  1  0
 12 31  1  0
 13 14  1  0
 13 46  1  0
 13 81  1  0
 14 15  1  0
 14 48  1  0
 14 82  1  0
 15 50  1  0
 15 73  1  0
 15 83  1  0
 16 51  1  0
 16 73  1  0
 16 74  1  0
 17 18  1  0
 17 20  1  0
 17 74  1  0
 18 75  1  0
 18 76  1  0
 19 55  1  0
 19 68  1  0
 19 76  1  0
 20 68  1  0
 20 73  1  0
 21 56  1  0
 21 57  1  0
 21 70  1  0
 22 24  1  0
 22 58  1  0
 22 59  1  0
 22 71  1  0
 23 25  1  0
 23 77  1  0
 24 60  1  0
 25 26  1  0
 25 28  1  0
 26 27  1  0
 27 42  1  0
 28 29  1  0
 28 53  1  0
 29 30  1  0
 29 67  1  0
 30 61  1  0
 33 69  1  0
 40 70  1  0
 41 71  1  0
 43 72  1  0
 47 81  1  0
 49 82  1  0
 52 75  1  0
 54 75  1  0
 63 77  1  0
 64 67  1  0
M  END
$$$$
