7puq_B_867_501
     RDKit          3D

 85 89  0  0  0  0  0  0  0  0999 V2000
   34.7650   24.7910  128.9910 C   0  0  0  0  0  3  0  0  0  0  0  0
   33.8400   21.3410  127.8610 C   0  0  0  0  0  3  0  0  0  0  0  0
   35.9540   25.6970  129.0820 C   0  0  0  0  0  3  0  0  0  0  0  0
   38.0090   24.9260  129.9880 C   0  0  0  0  0  0  0  0  0  0  0  0
   29.0170   20.3070  128.0750 C   0  0  0  0  0  3  0  0  0  0  0  0
   26.7500   19.2160  128.1810 C   0  0  0  0  0  0  0  0  0  0  0  0
   26.1460   18.3850  127.0320 C   0  0  0  0  0  0  0  0  0  0  0  0
   25.4930   19.2440  125.9070 C   0  0  0  0  0  0  0  0  0  0  0  0
   23.9450   20.0950  123.5880 C   0  0  0  0  0  3  0  0  0  0  0  0
   24.4360   21.9650  120.5360 C   0  0  0  0  0  0  0  0  0  0  0  0
   24.5010   21.6530  119.0450 C   0  0  0  0  0  0  0  0  0  0  0  0
   33.5300   25.2680  129.4350 C   0  0  0  0  0  3  0  0  0  0  0  0
   25.8860   21.7720  118.4080 C   0  0  0  0  0  0  0  0  0  0  0  0
   25.9270   23.2590  118.0450 C   0  0  0  0  0  0  0  0  0  0  0  0
   24.5050   23.3830  117.4760 C   0  0  0  0  0  0  0  0  0  0  0  0
   23.9410   25.6240  118.4850 C   0  0  0  0  0  3  0  0  0  0  0  0
   23.0930   26.6510  116.8420 C   0  0  0  0  0  3  0  0  0  0  0  0
   22.5000   27.5290  115.9230 C   0  0  0  0  0  3  0  0  0  0  0  0
   22.6970   25.8350  114.3630 C   0  0  0  0  0  3  0  0  0  0  0  0
   23.4340   25.3960  116.3770 C   0  0  0  0  0  3  0  0  0  0  0  0
   25.6780   18.6410  124.5090 C   0  0  0  0  0  0  0  0  0  0  0  0
   23.0390   22.1880  122.6660 C   0  0  0  0  0  0  0  0  0  0  0  0
   32.4120   24.4740  129.3710 C   0  0  0  0  0  3  0  0  0  0  0  0
   23.0870   21.6890  121.2050 C   0  0  0  0  0  0  0  0  0  0  0  0
   32.4800   23.1250  128.8360 C   0  0  0  0  0  3  0  0  0  0  0  0
   33.7450   22.6570  128.3850 C   0  0  0  0  0  3  0  0  0  0  0  0
   34.8710   23.5150  128.4760 C   0  0  0  0  0  3  0  0  0  0  0  0
   31.3690   22.2390  128.7280 C   0  0  0  0  0  3  0  0  0  0  0  0
   31.4820   20.9790  128.1720 C   0  0  0  0  0  3  0  0  0  0  0  0
   32.7440   20.5300  127.7830 C   0  0  0  0  0  3  0  0  0  0  0  0
   33.4760   26.2800  129.8330 H   0  0  0  0  0  0  0  0  0  0  0  0
   38.7250   24.1190  129.8370 H   0  0  0  0  0  0  0  0  0  0  0  0
   28.6060   18.2860  128.4040 H   0  0  0  0  0  0  0  0  0  0  0  0
   26.3280   18.8740  129.1250 H   0  0  0  0  0  0  0  0  0  0  0  0
   26.4200   20.2500  128.0980 H   0  0  0  0  0  0  0  0  0  0  0  0
   26.9300   17.7580  126.6100 H   0  0  0  0  0  0  0  0  0  0  0  0
   25.4220   17.6700  127.4200 H   0  0  0  0  0  0  0  0  0  0  0  0
   24.4350   19.3800  126.1290 H   0  0  0  0  0  0  0  0  0  0  0  0
   25.8970   20.2550  125.9300 H   0  0  0  0  0  0  0  0  0  0  0  0
   25.4170   19.2230  122.5010 H   0  0  0  0  0  0  0  0  0  0  0  0
   24.0490   21.8780  124.4590 H   0  0  0  0  0  0  0  0  0  0  0  0
   35.8270   23.1320  128.1210 H   0  0  0  0  0  0  0  0  0  0  0  0
   22.7890   18.5150  123.8480 H   0  0  0  0  0  0  0  0  0  0  0  0
   25.2140   21.3840  121.0300 H   0  0  0  0  0  0  0  0  0  0  0  0
   24.7200   23.0020  120.7100 H   0  0  0  0  0  0  0  0  0  0  0  0
   24.0740   20.6710  118.8460 H   0  0  0  0  0  0  0  0  0  0  0  0
   26.6590   21.5560  119.1280 H   0  0  0  0  0  0  0  0  0  0  0  0
   26.9240   21.1960  116.8680 H   0  0  0  0  0  0  0  0  0  0  0  0
   26.0520   23.8580  118.9460 H   0  0  0  0  0  0  0  0  0  0  0  0
   26.5990   24.0460  116.3970 H   0  0  0  0  0  0  0  0  0  0  0  0
   24.4090   22.9620  116.4760 H   0  0  0  0  0  0  0  0  0  0  0  0
   24.3150   25.3910  119.4800 H   0  0  0  0  0  0  0  0  0  0  0  0
   30.3950   22.5730  129.0720 H   0  0  0  0  0  0  0  0  0  0  0  0
   21.6850   29.3860  115.5270 H   0  0  0  0  0  0  0  0  0  0  0  0
   22.2390   29.1450  117.1610 H   0  0  0  0  0  0  0  0  0  0  0  0
   22.5140   25.5420  113.3300 H   0  0  0  0  0  0  0  0  0  0  0  0
   25.2190   17.6540  124.4770 H   0  0  0  0  0  0  0  0  0  0  0  0
   26.7340   18.4380  124.3400 H   0  0  0  0  0  0  0  0  0  0  0  0
   22.0120   22.1590  123.0260 H   0  0  0  0  0  0  0  0  0  0  0  0
   23.2980   23.2440  122.7070 H   0  0  0  0  0  0  0  0  0  0  0  0
   22.8570   20.6260  121.1630 H   0  0  0  0  0  0  0  0  0  0  0  0
   22.3060   22.1450  120.6020 H   0  0  0  0  0  0  0  0  0  0  0  0
   32.8650   19.5280  127.3740 H   0  0  0  0  0  0  0  0  0  0  0  0
   34.8080   20.9810  127.5140 H   0  0  0  0  0  0  0  0  0  0  0  0
   30.4790   24.2780  129.7080 H   0  0  0  0  0  0  0  0  0  0  0  0
   30.6900   19.1250  128.3810 H   0  0  0  0  0  0  0  0  0  0  0  0
   37.4730   24.7650  130.9220 H   0  0  0  0  0  0  0  0  0  0  0  0
   38.5250   25.8840  130.0160 H   0  0  0  0  0  0  0  0  0  0  0  0
   30.3810   20.0670  128.1630 N   0  0  0  0  0  0  0  0  0  0  0  0
   23.2680   24.9280  115.1420 N   0  0  0  0  0  2  0  0  0  0  0  0
   28.2140   19.2050  128.2270 N   0  0  0  0  0  0  0  0  0  0  0  0
   25.1240   19.4670  123.4420 N   0  0  0  0  0  0  0  0  0  0  0  0
   23.9150   21.4340  123.5560 N   0  0  0  0  0  0  0  0  0  0  0  0
   22.8130   19.5290  123.8080 N   0  0  0  0  0  2  0  0  0  0  0  0
   23.9810   24.7380  117.4460 N   0  0  0  0  0  0  0  0  0  0  0  0
   23.4250   26.7840  118.1790 N   0  0  0  0  0  2  0  0  0  0  0  0
   22.1110   28.7810  116.2220 N   0  0  0  0  0  0  0  0  0  0  0  0
   22.3090   27.0680  114.6720 N   0  0  0  0  0  2  0  0  0  0  0  0
   31.1910   24.9540  129.8120 O   0  0  0  0  0  0  0  0  0  0  0  0
   37.1060   25.0570  128.8590 O   0  0  0  0  0  0  0  0  0  0  0  0
   35.8990   26.8760  129.3310 O   0  0  0  0  0  1  0  0  0  0  0  0
   28.5490   21.4220  127.8710 O   0  0  0  0  0  1  0  0  0  0  0  0
   26.0420   20.9520  117.2540 O   0  0  0  0  0  0  0  0  0  0  0  0
   27.0040   23.5390  117.1490 O   0  0  0  0  0  0  0  0  0  0  0  0
   23.6830   22.6000  118.3220 O   0  0  0  0  0  0  0  0  0  0  0  0
  1  3  1  0
  1 12  1  0
  1 27  1  0
  2 26  1  0
  2 30  1  0
  2 64  1  0
  3 80  1  0
  3 81  1  0
  4 32  1  0
  4 67  1  0
  4 68  1  0
  4 80  1  0
  5 69  1  0
  5 71  1  0
  5 82  1  0
  6  7  1  0
  6 34  1  0
  6 35  1  0
  6 71  1  0
  7  8  1  0
  7 36  1  0
  7 37  1  0
  8 21  1  0
  8 38  1  0
  8 39  1  0
  9 72  1  0
  9 73  1  0
  9 74  1  0
 10 11  1  0
 10 24  1  0
 10 44  1  0
 10 45  1  0
 11 13  1  0
 11 46  1  0
 11 85  1  0
 12 23  1  0
 12 31  1  0
 13 14  1  0
 13 47  1  0
 13 83  1  0
 14 15  1  0
 14 49  1  0
 14 84  1  0
 15 51  1  0
 15 75  1  0
 15 85  1  0
 16 52  1  0
 16 75  1  0
 16 76  1  0
 17 18  1  0
 17 20  1  0
 17 76  1  0
 18 77  1  0
 18 78  1  0
 19 56  1  0
 19 70  1  0
 19 78  1  0
 20 70  1  0
 20 75  1  0
 21 57  1  0
 21 58  1  0
 21 72  1  0
 22 24  1  0
 22 59  1  0
 22 60  1  0
 22 73  1  0
 23 25  1  0
 23 79  1  0
 24 61  1  0
 24 62  1  0
 25 26  1  0
 25 28  1  0
 26 27  1  0
 27 42  1  0
 28 29  1  0
 28 53  1  0
 29 30  1  0
 29 69  1  0
 30 63  1  0
 33 71  1  0
 40 72  1  0
 41 73  1  0
 43 74  1  0
 48 83  1  0
 50 84  1  0
 54 77  1  0
 55 77  1  0
 65 79  1  0
 66 69  1  0
M  END
$$$$
