7qph_G_QVR_101
     RDKit          3D

 34 36  0  0  0  0  0  0  0  0999 V2000
   24.8330   33.6310  181.3480 C   0  0  0  0  0  3  0  0  0  0  0  0
   25.3690   34.8870  180.7340 C   0  0  0  0  0  3  0  0  0  0  0  0
   25.6810   35.9660  181.4200 C   0  0  0  0  0  3  0  0  0  0  0  0
   26.2140   37.1440  180.6760 C   0  0  0  0  0  0  0  0  0  0  0  0
   27.1860   38.9340  181.8200 C   0  0  0  0  0  0  0  0  0  0  0  0
   28.2400   37.8410  181.7060 C   0  0  0  0  0  0  0  0  0  0  0  0
   27.7300   37.1150  180.4620 C   0  0  0  0  0  0  0  0  0  0  0  0
   26.9350   38.8490  184.3460 C   0  0  0  0  0  3  0  0  0  0  0  0
   26.7920   40.9120  184.8400 C   0  0  0  0  0  3  0  0  0  0  0  0
   26.9670   40.8500  183.4600 C   0  0  0  0  0  3  0  0  0  0  0  0
   26.9250   43.0470  183.2700 C   0  0  0  0  0  3  0  0  0  0  0  0
   26.6670   42.1940  185.4080 C   0  0  0  0  0  3  0  0  0  0  0  0
   23.9980   33.9200  181.9850 H   0  0  0  0  0  0  0  0  0  0  0  0
   25.4940   34.8670  179.6520 H   0  0  0  0  0  0  0  0  0  0  0  0
   25.6080   33.2440  182.0080 H   0  0  0  0  0  0  0  0  0  0  0  0
   25.5720   36.0460  182.5010 H   0  0  0  0  0  0  0  0  0  0  0  0
   28.1110   36.1070  180.3080 H   0  0  0  0  0  0  0  0  0  0  0  0
   28.2640   37.1150  182.5170 H   0  0  0  0  0  0  0  0  0  0  0  0
   29.1150   37.8520  179.2590 H   0  0  0  0  0  0  0  0  0  0  0  0
   30.1670   37.8030  181.9570 H   0  0  0  0  0  0  0  0  0  0  0  0
   26.9810   43.9490  182.6630 H   0  0  0  0  0  0  0  0  0  0  0  0
   26.9740   37.7620  184.4050 H   0  0  0  0  0  0  0  0  0  0  0  0
   26.3940   43.3550  187.1050 H   0  0  0  0  0  0  0  0  0  0  0  0
   26.4180   41.6710  187.3990 H   0  0  0  0  0  0  0  0  0  0  0  0
   25.6800   37.2680  179.7350 H   0  0  0  0  0  0  0  0  0  0  0  0
   27.3570   39.7630  181.1340 H   0  0  0  0  0  0  0  0  0  0  0  0
   27.0460   39.5170  183.1540 N   0  0  0  0  0  0  0  0  0  0  0  0
   26.7820   39.6380  185.3800 N   0  0  0  0  0  2  0  0  0  0  0  0
   27.0460   41.8900  182.6170 N   0  0  0  0  0  2  0  0  0  0  0  0
   26.7420   43.2570  184.5770 N   0  0  0  0  0  2  0  0  0  0  0  0
   26.4810   42.4210  186.7180 N   0  0  0  0  0  0  0  0  0  0  0  0
   25.9600   38.3310  181.4520 O   0  0  0  0  0  0  0  0  0  0  0  0
   29.5190   38.4580  181.5860 O   0  0  0  0  0  0  0  0  0  0  0  0
   28.1240   37.8560  179.3180 O   0  0  0  0  0  0  0  0  0  0  0  0
  1  2  1  0
  1 13  1  0
  1 15  1  0
  2  3  1  0
  2 14  1  0
  3  4  1  0
  3 16  1  0
  4  7  1  0
  4 25  1  0
  4 32  1  0
  5  6  1  0
  5 26  1  0
  5 27  1  0
  5 32  1  0
  6  7  1  0
  6 18  1  0
  6 33  1  0
  7 17  1  0
  7 34  1  0
  8 22  1  0
  8 27  1  0
  8 28  1  0
  9 10  1  0
  9 12  1  0
  9 28  1  0
 10 27  1  0
 10 29  1  0
 11 21  1  0
 11 29  1  0
 11 30  1  0
 12 30  1  0
 12 31  1  0
 19 34  1  0
 20 33  1  0
 23 31  1  0
 24 31  1  0
M  END
$$$$
