7qrd_D_SAH_603
     RDKit          3D

 45 64  0  0  0  0  0  0  0  0999 V2000
   52.6640   14.1580  194.5760 C   0  0  0  0  0  0  0  0  0  0  0  0
   52.2850   22.3500  195.5750 C   0  0  0  0  0  0  0  0  0  0  0  0
   54.6010   24.9520  198.3390 C   0  0  0  0  0  3  0  0  0  0  0  0
   50.8530   22.1650  195.0820 C   0  0  0  0  0  0  0  0  0  0  0  0
   50.8210   20.6740  194.7550 C   0  0  0  0  0  5  0  0  0  0  0  0
   53.5570   24.3660  196.3020 C   0  0  0  0  0  3  0  0  0  0  0  0
   52.2760   20.2440  194.5920 C   0  0  0  0  0  5  0  0  0  0  0  0
   53.9440   25.5690  195.7370 C   0  0  0  0  0  3  0  0  0  0  0  0
   52.6100   19.7450  193.1940 C   0  0  0  0  0  5  0  0  0  0  0  0
   54.6730   26.4750  196.4980 C   0  0  0  0  0  3  0  0  0  0  0  0
   52.8250   24.4410  194.2180 C   0  0  0  0  0  3  0  0  0  0  0  0
   53.2470   15.4930  195.0340 C   0  0  0  0  0  6  0  0  0  0  0  0
   53.1150   16.5220  193.9220 C   0  0  0  0  0  6  0  0  0  0  0  0
   51.7770   17.2440  193.9490 C   0  0  0  0  0  0  0  0  0  0  0  0
   52.2600   22.2310  196.6580 H   0  0  0  0  0  0  0  0  0  0  0  0
   54.8610   24.7090  199.3690 H   0  0  0  0  0  0  0  0  0  0  0  0
   50.6050   22.8190  194.2460 H   0  0  0  0  0  0  0  0  0  0  0  0
   50.2300   20.4790  193.8600 H   0  0  0  0  0  0  0  0  0  0  0  0
   52.4750   19.4050  195.2580 H   0  0  0  0  0  2  0  0  0  0  0  0
   52.5290   20.5850  192.5050 H   0  0  0  0  0  0  0  0  0  0  0  0
   53.6470   19.4080  193.1920 H   0  0  0  0  0  0  0  0  0  0  0  0
   52.3450   24.1680  193.2780 H   0  0  0  0  0  0  0  0  0  0  0  0
   52.7270   15.8040  195.8040 H   0  0  0  0  0  2  0  0  0  0  0  0
   53.2340   16.0200  192.9620 H   0  0  0  0  0  2  0  0  0  0  0  0
   53.9190   17.2510  194.0200 H   0  0  0  0  0  2  0  0  0  0  0  0
   51.6910   17.7970  194.8840 Hg  0  0  0  0  0 12  0  0  0  0  0  0
   50.9750   16.5060  193.9200 Hg  0  0  0  0  0  8  0  0  0  0  0  0
   55.2000   15.4720  194.7840 H   0  0  0  0  0  0  0  0  0  0  0  0
   54.7630   14.8040  196.0820 H   0  0  0  0  0  0  0  0  0  0  0  0
   54.8220   27.8740  195.0270 H   0  0  0  0  0  0  0  0  0  0  0  0
   55.5920   28.2910  196.5520 H   0  0  0  0  0  0  0  0  0  0  0  0
   50.3440   22.8270  196.8500 H   0  0  0  0  0  0  0  0  0  0  0  0
   50.0110   20.5770  196.5420 H   0  0  0  0  0  0  0  0  0  0  0  0
   54.6410   15.3470  195.4250 N   0  0  0  0  0  0  0  0  0  0  0  0
   54.9960   26.1550  197.7930 N   0  0  0  0  0  2  0  0  0  0  0  0
   53.8770   24.0570  197.5800 N   0  0  0  0  0  2  0  0  0  0  0  0
   55.0590   27.6380  195.9850 N   0  0  0  0  0  0  0  0  0  0  0  0
   53.4860   25.5950  194.4650 N   0  0  0  0  0  2  0  0  0  0  0  0
   52.8610   23.6760  195.3480 N   0  0  0  0  0  0  0  0  0  0  0  0
   51.5190   13.8110  194.8830 O   0  0  0  0  0  0  0  0  0  0  0  0
   49.8960   22.4950  196.0440 O   0  0  0  0  0  0  0  0  0  0  0  0
   50.2460   19.9570  195.8200 O   0  0  0  0  0  3  0  0  0  0  0  0
   53.0720   21.3800  194.9020 O   0  0  0  0  0  0  0  0  0  0  0  0
   53.3360   13.3900  193.8860 O   0  0  0  0  0  1  0  0  0  0  0  0
   51.5740   18.3920  192.5630 S   0  0  0  0  0  4  0  0  0  0  0  0
  1 12  1  0
  1 27  1  0
  1 40  1  0
  1 44  1  0
  2  4  1  0
  2 15  1  0
  2 39  1  0
  2 43  1  0
  3 16  1  0
  3 35  1  0
  3 36  1  0
  4  5  1  0
  4 17  1  0
  4 41  1  0
  5  7  1  0
  5 18  1  0
  5 26  1  0
  5 42  1  0
  6  8  1  0
  6 36  1  0
  6 39  1  0
  7  9  1  0
  7 19  1  0
  7 26  1  0
  7 43  1  0
  8 10  1  0
  8 38  1  0
  9 20  1  0
  9 21  1  0
  9 26  1  0
  9 45  1  0
 10 35  1  0
 10 37  1  0
 11 22  1  0
 11 38  1  0
 11 39  1  0
 12 13  1  0
 12 23  1  0
 12 26  1  0
 12 27  1  0
 12 34  1  0
 13 14  1  0
 13 24  1  0
 13 25  1  0
 13 26  1  0
 13 27  1  0
 14 26  1  0
 14 27  1  0
 14 45  1  0
 19 26  1  0
 23 26  1  0
 24 27  1  0
 25 26  1  0
 26 27  1  0
 26 42  1  0
 26 45  1  0
 27 40  1  0
 27 45  1  0
 28 34  1  0
 29 34  1  0
 30 37  1  0
 31 37  1  0
 32 41  1  0
 33 42  1  0
M  END
$$$$
