8g2i_A_I0B_501
     RDKit          3D

 46 50  0  0  0  0  0  0  0  0999 V2000
   -3.0670   35.3770  -26.0000 Br  0  0  0  0  0  0  0  0  0  0  0  0
    6.1380   19.7830  -28.4670 C   0  0  0  0  0  3  0  0  0  0  0  0
    6.5400   20.6820  -30.5580 C   0  0  0  0  0  2  0  0  0  0  0  0
    2.4580   30.3460  -31.9110 C   0  0  0  0  0  3  0  0  0  0  0  0
    3.0720   32.2070  -33.3900 C   0  0  0  0  0  2  0  0  0  0  0  0
    3.1430   33.5120  -32.6370 C   0  0  0  0  0  3  0  0  0  0  0  0
    2.5640   34.6600  -33.1520 C   0  0  0  0  0  2  0  0  0  0  0  0
    2.7090   35.8760  -32.5040 C   0  0  0  0  0  2  0  0  0  0  0  0
    3.3840   35.9480  -31.3090 C   0  0  0  0  0  2  0  0  0  0  0  0
    3.9590   34.7990  -30.7810 C   0  0  0  0  0  2  0  0  0  0  0  0
    3.8400   33.5950  -31.4380 C   0  0  0  0  0  2  0  0  0  0  0  0
    0.9550   27.6320  -27.2120 C   0  0  0  0  0  2  0  0  0  0  0  0
    1.9410   27.6590  -26.0420 C   0  0  0  0  0  2  0  0  0  0  0  0
    4.6480   21.2790  -29.5850 C   0  0  0  0  0  3  0  0  0  0  0  0
    1.4340   28.2620  -24.8050 C   0  0  0  0  0  2  0  0  0  0  0  0
   -0.1070   30.1380  -24.8500 C   0  0  0  0  0  3  0  0  0  0  0  0
   -1.4440   31.8810  -24.7380 C   0  0  0  0  0  3  0  0  0  0  0  0
   -1.6050   33.1180  -25.3200 C   0  0  0  0  0  2  0  0  0  0  0  0
   -2.6440   33.8970  -24.9090 C   0  0  0  0  0  3  0  0  0  0  0  0
   -3.4850   33.5300  -23.8560 C   0  0  0  0  0  2  0  0  0  0  0  0
   -3.3060   32.2840  -23.2560 C   0  0  0  0  0  2  0  0  0  0  0  0
   -2.3040   31.4430  -23.7130 C   0  0  0  0  0  2  0  0  0  0  0  0
    1.2050   24.6830  -30.2410 C   0  0  0  0  0  3  0  0  0  0  0  0
    1.3300   23.1820  -29.9650 C   0  0  0  0  0  3  0  0  0  0  0  0
    4.9200   20.5010  -28.4670 C   0  0  0  0  0  3  0  0  0  0  0  0
    3.0220   21.3920  -28.1210 C   0  0  0  0  0  2  0  0  0  0  0  0
    2.8520   23.0060  -30.0410 C   0  0  0  0  0  3  0  0  0  0  0  0
    2.4960   25.2680  -29.6560 C   0  0  0  0  0  3  0  0  0  0  0  0
    2.3480   26.0010  -28.3380 C   0  0  0  0  0  2  0  0  0  0  0  0
    2.3220   28.2600  -29.1360 C   0  0  0  0  0  2  0  0  0  0  0  0
    1.9390   28.4160  -30.5590 C   0  0  0  0  0  2  0  0  0  0  0  0
    6.5600   19.0050  -27.4540 N   0  0  0  0  0  1  0  0  0  0  0  0
    6.9350   19.9040  -29.5440 N   0  0  0  0  0  2  0  0  0  0  0  0
   -1.2270   29.5690  -24.3190 N   0  0  0  0  0  1  0  0  0  0  0  0
    5.4120   21.3920  -30.6770 N   0  0  0  0  0  2  0  0  0  0  0  0
    3.8770   20.5710  -27.5560 N   0  0  0  0  0  2  0  0  0  0  0  0
    3.4320   21.8800  -29.3350 N   0  0  0  0  0  0  0  0  0  0  0  0
    1.5480   27.2000  -28.4880 N   0  0  0  0  0  0  0  0  0  0  0  0
    2.9010   29.2330  -31.2970 N   0  0  0  0  0  2  0  0  0  0  0  0
    3.3980   31.0160  -32.6030 N   0  0  0  0  0  2  0  0  0  0  0  0
    1.0140   29.6010  -25.1430 N   0  0  0  0  0  2  0  0  0  0  0  0
   -0.2620   31.3520  -25.2330 N   0  0  0  0  0  2  0  0  0  0  0  0
    3.3670   24.1530  -29.4220 O   0  0  0  0  0  0  0  0  0  0  0  0
    1.2670   30.7220  -31.8120 O   0  0  0  0  0  1  0  0  0  0  0  0
    1.1740   25.0140  -31.6170 O   0  0  0  0  0  1  0  0  0  0  0  0
    0.7450   22.3790  -30.9850 O   0  0  0  0  0  1  0  0  0  0  0  0
  1 19  1  0
  2 25  1  0
  2 32  1  0
  2 33  1  0
  3 33  1  0
  3 35  1  0
  4 39  1  0
  4 40  1  0
  4 44  1  0
  5  6  1  0
  5 40  1  0
  6  7  1  0
  6 11  1  0
  7  8  1  0
  8  9  1  0
  9 10  1  0
 10 11  1  0
 12 13  1  0
 12 38  1  0
 13 15  1  0
 14 25  1  0
 14 35  1  0
 14 37  1  0
 15 41  1  0
 16 34  1  0
 16 41  1  0
 16 42  1  0
 17 18  1  0
 17 22  1  0
 17 42  1  0
 18 19  1  0
 19 20  1  0
 20 21  1  0
 21 22  1  0
 23 24  1  0
 23 28  1  0
 23 45  1  0
 24 27  1  0
 24 46  1  0
 25 36  1  0
 26 36  1  0
 26 37  1  0
 27 37  1  0
 27 43  1  0
 28 29  1  0
 28 43  1  0
 29 38  1  0
 30 31  1  0
 30 38  1  0
 31 39  1  0
M  END
$$$$
