8uqh_A_X9L_501
     RDKit          3D

 60159  0  0  0  0  0  0  0  0999 V2000
  -13.8080   21.4240  -72.4430 Br  0  0  0  0  0  2  0  0  0  0  0  0
  -11.7240   22.8730  -77.8300 Br  0  0  0  0  0  3  0  0  0  0  0  0
  -10.6430    6.8100  -80.9580 C   0  0  0  0  0  7  0  0  0  0  0  0
  -10.6410    6.8130  -80.9520 C   0  0  0  0  0  7  0  0  0  0  0  0
  -10.8460    5.8860  -78.8550 C   0  0  0  0  0  5  0  0  0  0  0  0
  -10.8270    5.8790  -78.8510 C   0  0  0  0  0  5  0  0  0  0  0  0
  -10.3860    8.1770  -79.0120 C   0  0  0  0  0  7  0  0  0  0  0  0
  -10.3780    8.1750  -79.0220 C   0  0  0  0  0  7  0  0  0  0  0  0
  -10.3980    8.0920  -80.3710 C   0  0  0  0  0  7  0  0  0  0  0  0
  -10.3860    8.0870  -80.3810 C   0  0  0  0  0  7  0  0  0  0  0  0
   -9.9990   10.1740  -79.7930 C   0  0  0  0  0  5  0  0  0  0  0  0
   -9.9650   10.1660  -79.8090 C   0  0  0  0  0  5  0  0  0  0  0  0
  -10.0530    9.9610  -77.3180 C   0  0  0  0  0  7  0  0  0  0  0  0
  -10.0270    9.9590  -77.3360 C   0  0  0  0  0  7  0  0  0  0  0  0
  -10.7460   11.8260  -76.2860 C   0  0  0  0  0  7  0  0  0  0  0  0
  -10.7170   11.8170  -76.3000 C   0  0  0  0  0  7  0  0  0  0  0  0
  -11.1070   12.9660  -77.0280 C   0  0  0  0  0  5  0  0  0  0  0  0
  -11.0880   12.9510  -77.0440 C   0  0  0  0  0  5  0  0  0  0  0  0
  -12.6350   15.1350  -75.7020 C   0  0  0  0  0  5  0  0  0  0  0  0
  -12.6300   15.0820  -75.7130 C   0  0  0  0  0  5  0  0  0  0  0  0
  -13.0310   15.9230  -76.9240 C   0  0  0  0  0  5  0  0  0  0  0  0
  -12.9550   16.1160  -76.8300 C   0  0  0  0  0  5  0  0  0  0  0  0
  -12.1470   17.8900  -76.0340 C   0  0  0  0  0  0  0  0  0  0  0  0
  -12.1450   18.3090  -76.5560 C   0  0  0  0  0  5  0  0  0  0  0  0
  -12.4110   19.7150  -76.0210 C   0  0  0  0  0  6  0  0  0  0  0  0
  -12.3890   19.3600  -75.7240 C   0  0  0  0  0  6  0  0  0  0  0  0
  -12.8930   19.8920  -74.7320 C   0  0  0  0  0  5  0  0  0  0  0  0
  -12.0370   20.2880  -76.6820 C   0  0  0  0  0  0  0  0  0  0  0  0
  -13.1320   21.1700  -74.2480 C   0  0  0  0  0  6  0  0  0  0  0  0
  -12.2380   21.6280  -76.4440 C   0  0  0  0  0  6  0  0  0  0  0  0
  -12.8860   22.2670  -75.0600 C   0  0  0  0  0  5  0  0  0  0  0  0
  -12.7910   22.0540  -75.2460 C   0  0  0  0  0  5  0  0  0  0  0  0
  -13.1420   21.1170  -74.2830 C   0  0  0  0  0  6  0  0  0  0  0  0
  -12.4020   22.0880  -76.3480 C   0  0  0  0  0  5  0  0  0  0  0  0
  -12.9410   19.7660  -74.5220 C   0  0  0  0  0  5  0  0  0  0  0  0
  -12.1640   20.8110  -76.8290 C   0  0  0  0  0  5  0  0  0  0  0  0
   -9.1840   11.7340  -76.1540 C   0  0  0  0  0  7  0  0  0  0  0  0
   -9.1530   11.7400  -76.1900 C   0  0  0  0  0  7  0  0  0  0  0  0
   -8.8370   11.0440  -77.1250 C   0  0  0  0  0  7  0  0  0  0  0  0
   -8.8180   11.0560  -77.1670 C   0  0  0  0  0  7  0  0  0  0  0  0
  -10.6660    6.6570  -82.3950 N   0  0  0  0  0  0  0  0  0  0  0  0
  -10.6650    6.6510  -82.4010 N   0  0  0  0  0  0  0  0  0  0  0  0
  -10.8630    5.7610  -80.1740 N   0  0  0  0  0  5  0  0  0  0  0  0
  -10.8460    5.7600  -80.1710 N   0  0  0  0  0  5  0  0  0  0  0  0
  -10.6120    7.0520  -78.2850 N   0  0  0  0  0  5  0  0  0  0  0  0
  -10.6040    7.0470  -78.2780 N   0  0  0  0  0  5  0  0  0  0  0  0
  -10.1540    9.3470  -80.8390 N   0  0  0  0  0  5  0  0  0  0  0  0
  -10.1270    9.3370  -80.8530 N   0  0  0  0  0  5  0  0  0  0  0  0
  -10.1350    9.4650  -78.6710 N   0  0  0  0  0  7  0  0  0  0  0  0
  -10.1140    9.4610  -78.6860 N   0  0  0  0  0  7  0  0  0  0  0  0
  -13.3750   17.2580  -76.4770 N   0  0  0  0  0  5  0  0  0  0  0  0
  -13.2650   17.4260  -76.2840 N   0  0  0  0  0  5  0  0  0  0  0  0
  -11.1450   10.5800  -77.0310 O   0  0  0  0  0  5  0  0  0  0  0  0
  -11.1200   10.5690  -77.0380 O   0  0  0  0  0  5  0  0  0  0  0  0
   -8.8290   11.0340  -74.8540 O   0  0  0  0  0  3  0  0  0  0  0  0
   -8.7670   11.0400  -74.9000 O   0  0  0  0  0  3  0  0  0  0  0  0
   -7.5630   10.3370  -76.8230 O   0  0  0  0  0  3  0  0  0  0  0  0
   -7.5310   10.3640  -76.8890 O   0  0  0  0  0  3  0  0  0  0  0  0
  -10.9790   14.4340  -75.9660 S   0  0  0  0  0  5  0  0  0  0  0  0
  -10.9640   14.4170  -75.9810 S   0  0  0  0  0  5  0  0  0  0  0  0
  1 29  1  0
  1 33  1  0
  2 30  1  0
  2 34  1  0
  2 36  1  0
  3  4  1  0
  3  9  1  0
  3 10  1  0
  3 41  1  0
  3 42  1  0
  3 43  1  0
  3 44  1  0
  4  9  1  0
  4 10  1  0
  4 41  1  0
  4 42  1  0
  4 43  1  0
  4 44  1  0
  5  6  1  0
  5 43  1  0
  5 44  1  0
  5 45  1  0
  5 46  1  0
  6 43  1  0
  6 44  1  0
  6 45  1  0
  6 46  1  0
  7  8  1  0
  7  9  1  0
  7 10  1  0
  7 45  1  0
  7 46  1  0
  7 49  1  0
  7 50  1  0
  8  9  1  0
  8 10  1  0
  8 45  1  0
  8 46  1  0
  8 49  1  0
  8 50  1  0
  9 10  1  0
  9 47  1  0
  9 48  1  0
 10 47  1  0
 10 48  1  0
 11 12  1  0
 11 47  1  0
 11 48  1  0
 11 49  1  0
 11 50  1  0
 12 47  1  0
 12 48  1  0
 12 49  1  0
 12 50  1  0
 13 14  1  0
 13 39  1  0
 13 40  1  0
 13 49  1  0
 13 50  1  0
 13 53  1  0
 13 54  1  0
 14 39  1  0
 14 40  1  0
 14 49  1  0
 14 50  1  0
 14 53  1  0
 14 54  1  0
 15 16  1  0
 15 17  1  0
 15 18  1  0
 15 37  1  0
 15 38  1  0
 15 53  1  0
 15 54  1  0
 16 17  1  0
 16 18  1  0
 16 37  1  0
 16 38  1  0
 16 53  1  0
 16 54  1  0
 17 18  1  0
 17 59  1  0
 17 60  1  0
 18 59  1  0
 18 60  1  0
 19 20  1  0
 19 21  1  0
 19 22  1  0
 19 59  1  0
 19 60  1  0
 20 21  1  0
 20 22  1  0
 20 59  1  0
 20 60  1  0
 21 22  1  0
 21 51  1  0
 21 52  1  0
 22 51  1  0
 22 52  1  0
 23 24  1  0
 23 26  1  0
 23 51  1  0
 23 52  1  0
 24 25  1  0
 24 26  1  0
 24 51  1  0
 24 52  1  0
 25 26  1  0
 25 27  1  0
 25 28  1  0
 25 35  1  0
 25 36  1  0
 26 27  1  0
 26 28  1  0
 26 35  1  0
 27 29  1  0
 27 33  1  0
 27 35  1  0
 28 30  1  0
 28 36  1  0
 29 31  1  0
 29 32  1  0
 29 33  1  0
 29 35  1  0
 30 31  1  0
 30 32  1  0
 30 34  1  0
 30 36  1  0
 31 32  1  0
 31 33  1  0
 31 34  1  0
 32 33  1  0
 32 34  1  0
 33 35  1  0
 34 36  1  0
 37 38  1  0
 37 39  1  0
 37 40  1  0
 37 55  1  0
 37 56  1  0
 38 39  1  0
 38 40  1  0
 38 55  1  0
 38 56  1  0
 39 40  1  0
 39 57  1  0
 39 58  1  0
 40 57  1  0
 40 58  1  0
 41 42  1  0
 43 44  1  0
 45 46  1  0
 47 48  1  0
 49 50  1  0
 51 52  1  0
 53 54  1  0
 55 56  1  0
 57 58  1  0
 59 60  1  0
M  END
$$$$
