9i0a_B_A00_501
     RDKit          3D

 93110  0  0  0  0  0  0  0  0999 V2000
   29.9950   18.8550  126.9460 C   0  0  0  0  0  3  0  0  0  0  0  0
   31.5070   17.3450  127.9760 C   0  0  0  0  0  0  0  0  0  0  0  0
   24.5310   23.3580  118.0750 C   0  0  0  0  0  0  0  0  0  0  0  0
   29.1870   24.5680  126.3090 C   0  0  0  0  0  0  0  0  0  0  0  0
   30.4560   25.3220  126.0440 C   0  0  0  0  0  3  0  0  0  0  0  0
   31.2960   24.9500  125.0030 C   0  0  0  0  0  3  0  0  0  0  0  0
   32.4600   25.6550  124.7500 C   0  0  0  0  0  3  0  0  0  0  0  0
   32.7990   26.7400  125.5300 C   0  0  0  0  0  3  0  0  0  0  0  0
   31.9700   27.1210  126.5640 C   0  0  0  0  0  3  0  0  0  0  0  0
   30.8050   26.4180  126.8200 C   0  0  0  0  0  3  0  0  0  0  0  0
   22.7460   26.0030  115.0880 C   0  0  0  0  0  3  0  0  0  0  0  0
   25.9220   23.1820  118.6790 C   0  0  0  0  0  0  0  0  0  0  0  0
   31.1340   15.8870  128.0190 C   0  0  0  0  0  3  0  0  0  0  0  0
   30.2560   15.3460  127.0850 C   0  0  0  0  0  3  0  0  0  0  0  0
   29.9030   14.0070  127.1410 C   0  0  0  0  0  3  0  0  0  0  0  0
   30.4190   13.1910  128.1240 C   0  0  0  0  0  3  0  0  0  0  0  0
   31.2870   13.7150  129.0580 C   0  0  0  0  0  3  0  0  0  0  0  0
   31.6430   15.0540  129.0090 C   0  0  0  0  0  3  0  0  0  0  0  0
   25.9100   21.6900  118.9950 C   0  0  0  0  0  0  0  0  0  0  0  0
   23.4830   25.4450  117.0930 C   0  0  0  0  0  3  0  0  0  0  0  0
   24.4530   21.4310  119.3940 C   0  0  0  0  0  0  0  0  0  0  0  0
   23.1580   26.6770  117.6210 C   0  0  0  0  0  3  0  0  0  0  0  0
   24.1580   21.3360  120.8780 C   0  0  0  0  0  0  0  0  0  0  0  0
   22.5740   27.6140  116.7470 C   0  0  0  0  0  3  0  0  0  0  0  0
   24.5830   20.0170  121.5140 C   0  0  0  0  0  0  0  0  0  0  0  0
   23.6390   19.5400  122.6090 C   0  0  0  0  0  0  0  0  0  0  0  0
   23.9920   25.5580  119.2100 C   0  0  0  0  0  3  0  0  0  0  0  0
   29.3950   22.2500  126.8740 C   0  0  0  0  0  0  0  0  0  0  0  0
   28.9330   19.8900  127.2570 C   0  0  0  0  0  6  0  0  0  0  0  0
   27.5410   19.2820  127.1040 C   0  0  0  0  0  6  0  0  0  0  0  0
   25.0810   19.6420  127.3740 C   0  0  0  0  0  6  0  0  0  0  0  0
   26.4570   20.1630  127.7080 C   0  0  0  0  0  0  0  0  0  0  0  0
   23.6360   21.5760  124.0220 C   0  0  0  0  0  0  0  0  0  0  0  0
   24.3930   19.4610  125.0040 C   0  0  0  0  0  3  0  0  0  0  0  0
   28.9330   20.9190  125.3840 H   0  0  0  0  0  0  0  0  0  0  0  0
   30.1440   12.1380  128.1640 H   0  0  0  0  0  0  0  0  0  0  0  0
   24.4530   23.0380  117.0370 H   0  0  0  0  0  0  0  0  0  0  0  0
   32.3270   15.4650  129.7500 H   0  0  0  0  0  0  0  0  0  0  0  0
   28.3560   24.9950  125.7510 H   0  0  0  0  0  0  0  0  0  0  0  0
   28.9380   24.5850  127.3690 H   0  0  0  0  0  0  0  0  0  0  0  0
   31.0380   24.0960  124.3790 H   0  0  0  0  0  0  0  0  0  0  0  0
   33.1090   25.3480  123.9320 H   0  0  0  0  0  0  0  0  0  0  0  0
   33.7150   27.2940  125.3320 H   0  0  0  0  0  0  0  0  0  0  0  0
   32.2280   27.9780  127.1850 H   0  0  0  0  0  0  0  0  0  0  0  0
   30.1640   26.7370  127.6400 H   0  0  0  0  0  0  0  0  0  0  0  0
   22.5640   25.7640  114.0410 H   0  0  0  0  0  0  0  0  0  0  0  0
   26.0760   23.7680  119.5850 H   0  0  0  0  0  0  0  0  0  0  0  0
   22.9520   21.7630  124.8490 H   0  0  0  0  0  0  0  0  0  0  0  0
   24.5620   22.1210  124.2010 H   0  0  0  0  0  0  0  0  0  0  0  0
   23.1840   21.9440  123.1020 H   0  0  0  0  0  0  0  0  0  0  0  0
   26.6310   21.4060  119.7600 H   0  0  0  0  0  0  0  0  0  0  0  0
   23.6990   18.4570  122.7090 H   0  0  0  0  0  0  0  0  0  0  0  0
   22.6070   19.7420  122.3270 H   0  0  0  0  0  0  0  0  0  0  0  0
   25.5950   20.1230  121.9040 H   0  0  0  0  0  0  0  0  0  0  0  0
   24.6740   19.2620  120.7340 H   0  0  0  0  0  0  0  0  0  0  0  0
   31.9950   17.6770  127.0610 H   0  0  0  0  0  0  0  0  0  0  0  0
   24.0860   20.5370  118.8910 H   0  0  0  0  0  0  0  0  0  0  0  0
   32.0910   17.7040  128.8220 H   0  0  0  0  0  0  0  0  0  0  0  0
   23.0930   21.4860  121.0540 H   0  0  0  0  0  0  0  0  0  0  0  0
   24.6430   22.1550  121.4060 H   0  0  0  0  0  0  0  0  0  0  0  0
   29.8380   15.9740  126.3000 H   0  0  0  0  0  0  0  0  0  0  0  0
   22.3660   29.1660  118.0560 H   0  0  0  0  0  0  0  0  0  0  0  0
   21.7810   29.4890  116.4470 H   0  0  0  0  0  0  0  0  0  0  0  0
   29.2130   13.6020  126.4020 H   0  0  0  0  0  0  0  0  0  0  0  0
   24.3640   25.2600  120.1890 H   0  0  0  0  0  0  0  0  0  0  0  0
   31.6980   13.0780  129.8400 H   0  0  0  0  0  0  0  0  0  0  0  0
   29.0290   20.1990  128.2970 H   0  0  0  0  0  2  0  0  0  0  0  0
   27.3250   19.0930  126.0540 H   0  0  0  0  0  0  0  0  0  0  0  0
   27.5100   18.2920  127.5570 H   0  0  0  0  0  2  0  0  0  0  0  0
   25.1070   18.5540  127.3250 H   0  0  0  0  0  0  0  0  0  0  0  0
   24.4000   19.8600  128.1950 H   0  0  0  0  0  2  0  0  0  0  0  0
   24.3660   21.1930  126.1130 H   0  0  0  0  0  0  0  0  0  0  0  0
   26.5690   20.2370  128.7880 Hg  0  0  0  0  0  8  0  0  0  0  0  0
   26.5530   21.1920  127.3650 Hg  0  0  0  0  0  8  0  0  0  0  0  0
   24.5330   17.6260  124.1500 H   0  0  0  0  0  0  0  0  0  0  0  0
   27.7900   23.4500  118.1990 H   0  0  0  0  0  0  0  0  0  0  0  0
   26.2480   19.9570  118.0690 H   0  0  0  0  0  0  0  0  0  0  0  0
   29.0770   21.0410  126.3820 N   0  0  0  0  0  4  0  0  0  0  0  0
   22.3790   27.2330  115.4640 N   0  0  0  0  0  2  0  0  0  0  0  0
   23.3040   25.0390  115.8330 N   0  0  0  0  0  2  0  0  0  0  0  0
   22.2080   28.8480  117.1030 N   0  0  0  0  0  0  0  0  0  0  0  0
   23.4830   26.7410  118.9660 N   0  0  0  0  0  2  0  0  0  0  0  0
   24.0210   24.7210  118.1330 N   0  0  0  0  0  0  0  0  0  0  0  0
   24.5810   20.2010  126.1270 N   0  0  0  0  0  4  0  0  0  0  0  0
   23.9070   20.1550  123.9110 N   0  0  0  0  0  0  0  0  0  0  0  0
   24.6660   18.1700  124.9860 N   0  0  0  0  0  2  0  0  0  0  0  0
   30.4910   18.6960  125.8670 O   0  0  0  0  0  1  0  0  0  0  0  0
   29.6930   22.4730  128.0270 O   0  0  0  0  0  1  0  0  0  0  0  0
   26.9200   23.5240  117.7240 O   0  0  0  0  0  0  0  0  0  0  0  0
   29.3520   23.1790  125.8970 O   0  0  0  0  0  0  0  0  0  0  0  0
   26.2820   20.9240  117.8490 O   0  0  0  0  0  0  0  0  0  0  0  0
   23.6800   22.5180  118.8320 O   0  0  0  0  0  0  0  0  0  0  0  0
   30.2940   18.1450  128.0310 O   0  0  0  0  0  0  0  0  0  0  0  0
  1 29  1  0
  1 87  1  0
  1 93  1  0
  2 13  1  0
  2 56  1  0
  2 58  1  0
  2 93  1  0
  3 12  1  0
  3 37  1  0
  3 83  1  0
  3 92  1  0
  4  5  1  0
  4 39  1  0
  4 40  1  0
  4 90  1  0
  5  6  1  0
  5 10  1  0
  6  7  1  0
  6 41  1  0
  7  8  1  0
  7 42  1  0
  8  9  1  0
  8 43  1  0
  9 10  1  0
  9 44  1  0
 10 45  1  0
 11 46  1  0
 11 79  1  0
 11 80  1  0
 12 19  1  0
 12 47  1  0
 12 89  1  0
 13 14  1  0
 13 18  1  0
 14 15  1  0
 14 61  1  0
 15 16  1  0
 15 64  1  0
 16 17  1  0
 16 36  1  0
 17 18  1  0
 17 66  1  0
 18 38  1  0
 19 21  1  0
 19 51  1  0
 19 91  1  0
 20 22  1  0
 20 80  1  0
 20 83  1  0
 21 23  1  0
 21 57  1  0
 21 92  1  0
 22 24  1  0
 22 82  1  0
 23 25  1  0
 23 59  1  0
 23 60  1  0
 24 79  1  0
 24 81  1  0
 25 26  1  0
 25 54  1  0
 25 55  1  0
 26 52  1  0
 26 53  1  0
 26 85  1  0
 27 65  1  0
 27 82  1  0
 27 83  1  0
 28 74  1  0
 28 78  1  0
 28 88  1  0
 28 90  1  0
 29 30  1  0
 29 67  1  0
 29 73  1  0
 29 74  1  0
 29 78  1  0
 30 32  1  0
 30 68  1  0
 30 69  1  0
 30 73  1  0
 30 74  1  0
 31 32  1  0
 31 70  1  0
 31 71  1  0
 31 73  1  0
 31 74  1  0
 31 84  1  0
 32 73  1  0
 32 74  1  0
 33 48  1  0
 33 49  1  0
 33 50  1  0
 33 85  1  0
 34 84  1  0
 34 85  1  0
 34 86  1  0
 35 78  1  0
 62 81  1  0
 63 81  1  0
 67 73  1  0
 69 73  1  0
 71 73  1  0
 72 84  1  0
 73 74  1  0
 74 78  1  0
 74 84  1  0
 75 86  1  0
 76 89  1  0
 77 91  1  0
M  END
$$$$
