9i0a_D_A00_501
     RDKit          3D

 93108  0  0  0  0  0  0  0  0999 V2000
   46.3640   18.3740  185.9410 C   0  0  0  0  0  3  0  0  0  0  0  0
   44.7880   17.0140  184.8040 C   0  0  0  0  0  0  0  0  0  0  0  0
   52.2560   22.4560  195.2590 C   0  0  0  0  0  0  0  0  0  0  0  0
   47.1810   24.0090  186.0840 C   0  0  0  0  0  0  0  0  0  0  0  0
   46.1210   24.7080  186.8810 C   0  0  0  0  0  3  0  0  0  0  0  0
   46.4530   25.7890  187.6840 C   0  0  0  0  0  3  0  0  0  0  0  0
   45.4830   26.4430  188.4230 C   0  0  0  0  0  3  0  0  0  0  0  0
   44.1710   26.0280  188.3680 C   0  0  0  0  0  3  0  0  0  0  0  0
   43.8270   24.9550  187.5730 C   0  0  0  0  0  3  0  0  0  0  0  0
   44.7950   24.2990  186.8330 C   0  0  0  0  0  3  0  0  0  0  0  0
   54.5080   24.8690  198.1230 C   0  0  0  0  0  3  0  0  0  0  0  0
   50.8060   22.4200  194.7920 C   0  0  0  0  0  0  0  0  0  0  0  0
   45.0180   15.5360  184.9800 C   0  0  0  0  0  3  0  0  0  0  0  0
   44.4350   14.6180  184.1140 C   0  0  0  0  0  3  0  0  0  0  0  0
   44.6600   13.2590  184.2690 C   0  0  0  0  0  3  0  0  0  0  0  0
   45.4730   12.7980  185.2830 C   0  0  0  0  0  3  0  0  0  0  0  0
   46.0620   13.6990  186.1450 C   0  0  0  0  0  3  0  0  0  0  0  0
   45.8360   15.0590  185.9980 C   0  0  0  0  0  3  0  0  0  0  0  0
   50.6470   20.9350  194.4620 C   0  0  0  0  0  0  0  0  0  0  0  0
   53.5700   24.4190  196.1770 C   0  0  0  0  0  3  0  0  0  0  0  0
   52.0290   20.5490  193.9300 C   0  0  0  0  0  0  0  0  0  0  0  0
   53.9760   25.6310  195.6430 C   0  0  0  0  0  3  0  0  0  0  0  0
   52.1620   20.4300  192.4220 C   0  0  0  0  0  0  0  0  0  0  0  0
   54.7090   26.4850  196.4820 C   0  0  0  0  0  3  0  0  0  0  0  0
   53.1540   19.3640  191.9650 C   0  0  0  0  0  0  0  0  0  0  0  0
   52.6880   18.4890  190.7910 C   0  0  0  0  0  0  0  0  0  0  0  0
   52.9120   24.6240  194.1040 C   0  0  0  0  0  3  0  0  0  0  0  0
   46.8910   21.6310  186.0450 C   0  0  0  0  0  3  0  0  0  0  0  0
   47.5360   19.3090  185.7080 C   0  0  0  0  0  6  0  0  0  0  0  0
   48.8630   18.6070  185.9930 C   0  0  0  0  0  6  0  0  0  0  0  0
   51.3650   18.8340  186.0030 C   0  0  0  0  0  6  0  0  0  0  0  0
   50.0560   19.4820  185.6230 C   0  0  0  0  0  0  0  0  0  0  0  0
   53.0030   20.5710  189.4490 C   0  0  0  0  0  0  0  0  0  0  0  0
   52.0000   18.6090  188.3830 C   0  0  0  0  0  3  0  0  0  0  0  0
   47.7120   20.4490  187.5060 H   0  0  0  0  0  0  0  0  0  0  0  0
   45.6490   11.7310  185.4040 H   0  0  0  0  0  0  0  0  0  0  0  0
   52.4020   22.1040  196.2790 H   0  0  0  0  0  0  0  0  0  0  0  0
   46.3010   15.7670  186.6820 H   0  0  0  0  0  0  0  0  0  0  0  0
   48.1110   24.5740  186.0900 H   0  0  0  0  0  0  0  0  0  0  0  0
   46.8660   23.8710  185.0500 H   0  0  0  0  0  0  0  0  0  0  0  0
   47.4870   26.1260  187.7360 H   0  0  0  0  0  0  0  0  0  0  0  0
   45.7620   27.2900  189.0480 H   0  0  0  0  0  0  0  0  0  0  0  0
   43.4070   26.5420  188.9500 H   0  0  0  0  0  0  0  0  0  0  0  0
   42.7930   24.6190  187.5230 H   0  0  0  0  0  0  0  0  0  0  0  0
   44.5040   23.4540  186.2100 H   0  0  0  0  0  0  0  0  0  0  0  0
   54.7470   24.5950  199.1500 H   0  0  0  0  0  0  0  0  0  0  0  0
   50.6350   23.0440  193.9160 H   0  0  0  0  0  0  0  0  0  0  0  0
   53.7190   20.6890  188.6370 H   0  0  0  0  0  0  0  0  0  0  0  0
   52.1600   21.2380  189.2740 H   0  0  0  0  0  0  0  0  0  0  0  0
   53.4840   20.8500  190.3850 H   0  0  0  0  0  0  0  0  0  0  0  0
   49.8290   20.7460  193.7680 H   0  0  0  0  0  0  0  0  0  0  0  0
   51.7350   18.0230  191.0370 H   0  0  0  0  0  0  0  0  0  0  0  0
   53.3810   17.6610  190.6530 H   0  0  0  0  0  0  0  0  0  0  0  0
   53.4000   18.7360  192.8200 H   0  0  0  0  0  0  0  0  0  0  0  0
   54.0920   19.8550  191.7120 H   0  0  0  0  0  0  0  0  0  0  0  0
   44.2190   17.4960  185.5980 H   0  0  0  0  0  0  0  0  0  0  0  0
   52.3700   19.6290  194.4030 H   0  0  0  0  0  0  0  0  0  0  0  0
   44.3560   17.3090  183.8490 H   0  0  0  0  0  0  0  0  0  0  0  0
   52.4550   21.3890  191.9990 H   0  0  0  0  0  0  0  0  0  0  0  0
   51.1890   20.2190  191.9810 H   0  0  0  0  0  0  0  0  0  0  0  0
   43.7930   14.9620  183.3050 H   0  0  0  0  0  0  0  0  0  0  0  0
   54.9670   28.0380  195.1760 H   0  0  0  0  0  0  0  0  0  0  0  0
   55.7100   28.2640  196.7380 H   0  0  0  0  0  0  0  0  0  0  0  0
   44.1910   12.5550  183.5830 H   0  0  0  0  0  0  0  0  0  0  0  0
   52.4410   24.3840  193.1520 H   0  0  0  0  0  0  0  0  0  0  0  0
   46.7090   13.3450  186.9460 H   0  0  0  0  0  0  0  0  0  0  0  0
   47.5580   19.5850  184.6550 H   0  0  0  0  0  2  0  0  0  0  0  0
   48.9220   18.3160  187.0410 H   0  0  0  0  0  0  0  0  0  0  0  0
   48.9130   17.6590  185.4590 H   0  0  0  0  0  0  0  0  0  0  0  0
   51.2260   17.7560  186.0710 H   0  0  0  0  0  0  0  0  0  0  0  0
   52.0790   18.9650  185.1910 H   0  0  0  0  0  2  0  0  0  0  0  0
   52.2280   20.3210  187.2550 H   0  0  0  0  0  0  0  0  0  0  0  0
   50.0570   19.7080  184.5580 Hg  0  0  0  0  0  7  0  0  0  0  0  0
   49.9820   20.4600  186.0960 Hg  0  0  0  0  0  7  0  0  0  0  0  0
   51.6470   16.8220  189.2660 H   0  0  0  0  0  0  0  0  0  0  0  0
   49.0140   22.7860  195.4450 H   0  0  0  0  0  0  0  0  0  0  0  0
   50.2710   19.2060  195.3690 H   0  0  0  0  0  0  0  0  0  0  0  0
   47.4060   20.4920  186.5390 N   0  0  0  0  0  4  0  0  0  0  0  0
   54.9630   26.0660  197.7410 N   0  0  0  0  0  2  0  0  0  0  0  0
   53.8070   23.9770  197.4210 N   0  0  0  0  0  2  0  0  0  0  0  0
   55.1660   27.6850  196.1060 N   0  0  0  0  0  0  0  0  0  0  0  0
   53.5480   25.7400  194.3280 N   0  0  0  0  0  2  0  0  0  0  0  0
   52.8850   23.7670  195.1820 N   0  0  0  0  0  0  0  0  0  0  0  0
   51.9090   19.3580  187.2480 N   0  0  0  0  0  4  0  0  0  0  0  0
   52.5450   19.1960  189.5140 N   0  0  0  0  0  0  0  0  0  0  0  0
   51.5760   17.3590  188.4120 N   0  0  0  0  0  2  0  0  0  0  0  0
   45.7840   18.2570  186.9850 O   0  0  0  0  0  1  0  0  0  0  0  0
   46.0550   21.6910  185.1700 O   0  0  0  0  0  1  0  0  0  0  0  0
   49.9260   22.8230  195.8350 O   0  0  0  0  0  0  0  0  0  0  0  0
   47.4340   22.6980  186.6670 O   0  0  0  0  0  0  0  0  0  0  0  0
   50.3110   20.1680  195.6130 O   0  0  0  0  0  0  0  0  0  0  0  0
   52.9480   21.5610  194.4080 O   0  0  0  0  0  0  0  0  0  0  0  0
   46.0670   17.7050  184.8310 O   0  0  0  0  0  0  0  0  0  0  0  0
  1 29  1  0
  1 87  1  0
  1 93  1  0
  2 13  1  0
  2 56  1  0
  2 58  1  0
  2 93  1  0
  3 12  1  0
  3 37  1  0
  3 83  1  0
  3 92  1  0
  4  5  1  0
  4 39  1  0
  4 40  1  0
  4 90  1  0
  5  6  1  0
  5 10  1  0
  6  7  1  0
  6 41  1  0
  7  8  1  0
  7 42  1  0
  8  9  1  0
  8 43  1  0
  9 10  1  0
  9 44  1  0
 10 45  1  0
 11 46  1  0
 11 79  1  0
 11 80  1  0
 12 19  1  0
 12 47  1  0
 12 89  1  0
 13 14  1  0
 13 18  1  0
 14 15  1  0
 14 61  1  0
 15 16  1  0
 15 64  1  0
 16 17  1  0
 16 36  1  0
 17 18  1  0
 17 66  1  0
 18 38  1  0
 19 21  1  0
 19 51  1  0
 19 91  1  0
 20 22  1  0
 20 80  1  0
 20 83  1  0
 21 23  1  0
 21 57  1  0
 21 92  1  0
 22 24  1  0
 22 82  1  0
 23 25  1  0
 23 59  1  0
 23 60  1  0
 24 79  1  0
 24 81  1  0
 25 26  1  0
 25 54  1  0
 25 55  1  0
 26 52  1  0
 26 53  1  0
 26 85  1  0
 27 65  1  0
 27 82  1  0
 27 83  1  0
 28 78  1  0
 28 88  1  0
 28 90  1  0
 29 30  1  0
 29 67  1  0
 29 73  1  0
 29 74  1  0
 29 78  1  0
 30 32  1  0
 30 68  1  0
 30 69  1  0
 30 73  1  0
 30 74  1  0
 31 32  1  0
 31 70  1  0
 31 71  1  0
 31 73  1  0
 31 74  1  0
 31 84  1  0
 32 73  1  0
 32 74  1  0
 33 48  1  0
 33 49  1  0
 33 50  1  0
 33 85  1  0
 34 84  1  0
 34 85  1  0
 34 86  1  0
 35 78  1  0
 62 81  1  0
 63 81  1  0
 67 73  1  0
 71 73  1  0
 72 84  1  0
 73 74  1  0
 74 78  1  0
 74 84  1  0
 75 86  1  0
 76 89  1  0
 77 91  1  0
M  END
$$$$
