9i0a_A_A00_501
     RDKit          3D

 93108  0  0  0  0  0  0  0  0999 V2000
   47.9420   26.6360  132.1700 C   0  0  0  0  0  3  0  0  0  0  0  0
   46.2630   25.1460  132.9050 C   0  0  0  0  0  0  0  0  0  0  0  0
   50.3920   37.7090  130.8110 C   0  0  0  0  0  0  0  0  0  0  0  0
   47.0080   29.2240  127.2680 C   0  0  0  0  0  0  0  0  0  0  0  0
   45.5760   29.4160  126.8710 C   0  0  0  0  0  3  0  0  0  0  0  0
   45.0580   28.8010  125.7390 C   0  0  0  0  0  3  0  0  0  0  0  0
   43.7380   28.9950  125.3720 C   0  0  0  0  0  3  0  0  0  0  0  0
   42.9190   29.8070  126.1280 C   0  0  0  0  0  3  0  0  0  0  0  0
   43.4230   30.4240  127.2530 C   0  0  0  0  0  3  0  0  0  0  0  0
   44.7420   30.2320  127.6220 C   0  0  0  0  0  3  0  0  0  0  0  0
   50.8460   41.7650  129.2440 C   0  0  0  0  0  3  0  0  0  0  0  0
   49.1200   36.9050  131.0270 C   0  0  0  0  0  0  0  0  0  0  0  0
   47.0290   24.4570  134.0000 C   0  0  0  0  0  3  0  0  0  0  0  0
   46.7160   24.6590  135.3400 C   0  0  0  0  0  3  0  0  0  0  0  0
   47.4270   24.0100  136.3370 C   0  0  0  0  0  3  0  0  0  0  0  0
   48.4590   23.1560  136.0140 C   0  0  0  0  0  3  0  0  0  0  0  0
   48.7790   22.9470  134.6900 C   0  0  0  0  0  3  0  0  0  0  0  0
   48.0730   23.5940  133.6880 C   0  0  0  0  0  3  0  0  0  0  0  0
   49.4930   36.1850  132.3230 C   0  0  0  0  0  0  0  0  0  0  0  0
   50.6720   39.5680  129.1120 C   0  0  0  0  0  3  0  0  0  0  0  0
   50.9850   35.8930  132.1320 C   0  0  0  0  0  0  0  0  0  0  0  0
   50.7710   39.5920  127.7300 C   0  0  0  0  0  3  0  0  0  0  0  0
   51.3390   34.4650  131.7460 C   0  0  0  0  0  0  0  0  0  0  0  0
   50.9190   40.8490  127.1210 C   0  0  0  0  0  3  0  0  0  0  0  0
   52.7030   33.9780  132.2470 C   0  0  0  0  0  0  0  0  0  0  0  0
   52.7600   32.5090  132.6990 C   0  0  0  0  0  0  0  0  0  0  0  0
   50.5620   37.5510  128.2810 C   0  0  0  0  0  3  0  0  0  0  0  0
   47.5220   27.8940  129.1850 C   0  0  0  0  0  3  0  0  0  0  0  0
   48.8530   26.9710  131.0040 C   0  0  0  0  0  6  0  0  0  0  0  0
   50.2600   27.2880  131.5030 C   0  0  0  0  0  6  0  0  0  0  0  0
   52.5830   27.9060  130.8030 C   0  0  0  0  0  6  0  0  0  0  0  0
   51.2600   27.3380  130.3580 C   0  0  0  0  0  0  0  0  0  0  0  0
   52.6440   32.0150  130.2530 C   0  0  0  0  0  0  0  0  0  0  0  0
   52.6750   30.1570  131.8330 C   0  0  0  0  0  3  0  0  0  0  0  0
   48.5760   29.0330  130.5230 H   0  0  0  0  0  0  0  0  0  0  0  0
   49.0190   22.6480  136.7980 H   0  0  0  0  0  0  0  0  0  0  0  0
   50.5150   38.5580  131.4820 H   0  0  0  0  0  0  0  0  0  0  0  0
   48.3320   23.4290  132.6430 H   0  0  0  0  0  0  0  0  0  0  0  0
   47.6140   30.0810  126.9790 H   0  0  0  0  0  0  0  0  0  0  0  0
   47.4280   28.3320  126.8050 H   0  0  0  0  0  0  0  0  0  0  0  0
   45.6960   28.1600  125.1330 H   0  0  0  0  0  0  0  0  0  0  0  0
   43.3480   28.5040  124.4820 H   0  0  0  0  0  0  0  0  0  0  0  0
   41.8810   29.9610  125.8400 H   0  0  0  0  0  0  0  0  0  0  0  0
   42.7830   31.0670  127.8570 H   0  0  0  0  0  0  0  0  0  0  0  0
   45.1210   30.7310  128.5140 H   0  0  0  0  0  0  0  0  0  0  0  0
   50.8830   42.6830  129.8290 H   0  0  0  0  0  0  0  0  0  0  0  0
   48.9140   36.2050  130.2190 H   0  0  0  0  0  0  0  0  0  0  0  0
   53.4860   31.6250  129.6820 H   0  0  0  0  0  0  0  0  0  0  0  0
   51.7180   31.6980  129.7750 H   0  0  0  0  0  0  0  0  0  0  0  0
   52.6890   33.1030  130.2460 H   0  0  0  0  0  0  0  0  0  0  0  0
   48.8880   35.3010  132.5170 H   0  0  0  0  0  0  0  0  0  0  0  0
   51.9480   32.3090  133.3960 H   0  0  0  0  0  0  0  0  0  0  0  0
   53.6720   32.3370  133.2680 H   0  0  0  0  0  0  0  0  0  0  0  0
   53.0200   34.6280  133.0610 H   0  0  0  0  0  0  0  0  0  0  0  0
   53.4370   34.1520  131.4610 H   0  0  0  0  0  0  0  0  0  0  0  0
   45.7500   26.0600  133.2000 H   0  0  0  0  0  0  0  0  0  0  0  0
   51.5510   36.1850  133.0150 H   0  0  0  0  0  0  0  0  0  0  0  0
   45.5570   24.5190  132.3640 H   0  0  0  0  0  0  0  0  0  0  0  0
   51.3080   34.3600  130.6630 H   0  0  0  0  0  0  0  0  0  0  0  0
   50.5710   33.7850  132.1120 H   0  0  0  0  0  0  0  0  0  0  0  0
   45.9060   25.3320  135.6160 H   0  0  0  0  0  0  0  0  0  0  0  0
   51.0260   40.2280  125.1740 H   0  0  0  0  0  0  0  0  0  0  0  0
   51.1090   41.9550  125.3960 H   0  0  0  0  0  0  0  0  0  0  0  0
   47.1660   24.1800  137.3810 H   0  0  0  0  0  0  0  0  0  0  0  0
   50.4650   36.4680  128.2370 H   0  0  0  0  0  0  0  0  0  0  0  0
   49.5910   22.2710  134.4250 H   0  0  0  0  0  0  0  0  0  0  0  0
   48.9350   26.0960  130.3620 H   0  0  0  0  0  0  0  0  0  0  0  0
   50.2670   28.2290  132.0500 H   0  0  0  0  0  0  0  0  0  0  0  0
   50.5740   26.5560  132.2450 H   0  0  0  0  0  2  0  0  0  0  0  0
   52.8000   27.5680  131.8150 H   0  0  0  0  0  0  0  0  0  0  0  0
   53.3820   27.4800  130.1980 H   0  0  0  0  0  2  0  0  0  0  0  0
   52.5710   29.7840  129.8110 H   0  0  0  0  0  0  0  0  0  0  0  0
   51.4120   26.3480  129.9290 Hg  0  0  0  0  0  7  0  0  0  0  0  0
   50.8710   27.9230  129.5260 Hg  0  0  0  0  0  7  0  0  0  0  0  0
   52.7750   30.3120  133.8320 H   0  0  0  0  0  0  0  0  0  0  0  0
   47.2070   37.1270  131.2450 H   0  0  0  0  0  0  0  0  0  0  0  0
   49.5550   36.5540  134.2720 H   0  0  0  0  0  0  0  0  0  0  0  0
   48.3260   28.0900  130.2430 N   0  0  0  0  0  4  0  0  0  0  0  0
   50.9540   41.9360  127.9230 N   0  0  0  0  0  2  0  0  0  0  0  0
   50.7010   40.6290  129.9310 N   0  0  0  0  0  2  0  0  0  0  0  0
   51.0260   41.0280  125.8000 N   0  0  0  0  0  0  0  0  0  0  0  0
   50.7000   38.3030  127.2230 N   0  0  0  0  0  2  0  0  0  0  0  0
   50.5500   38.2480  129.4660 N   0  0  0  0  0  0  0  0  0  0  0  0
   52.6070   29.3600  130.7320 N   0  0  0  0  0  4  0  0  0  0  0  0
   52.6960   31.5230  131.6150 N   0  0  0  0  0  0  0  0  0  0  0  0
   52.7210   29.6700  133.0530 N   0  0  0  0  0  2  0  0  0  0  0  0
   47.9170   27.2270  133.2140 O   0  0  0  0  0  1  0  0  0  0  0  0
   47.2220   26.8110  128.7310 O   0  0  0  0  0  1  0  0  0  0  0  0
   47.9800   37.7460  131.1710 O   0  0  0  0  0  0  0  0  0  0  0  0
   47.0730   29.0740  128.7140 O   0  0  0  0  0  0  0  0  0  0  0  0
   49.2770   37.0290  133.4470 O   0  0  0  0  0  0  0  0  0  0  0  0
   51.4410   36.8000  131.0940 O   0  0  0  0  0  0  0  0  0  0  0  0
   47.1790   25.5900  131.8740 O   0  0  0  0  0  0  0  0  0  0  0  0
  1 29  1  0
  1 87  1  0
  1 93  1  0
  2 13  1  0
  2 56  1  0
  2 58  1  0
  2 93  1  0
  3 12  1  0
  3 37  1  0
  3 83  1  0
  3 92  1  0
  4  5  1  0
  4 39  1  0
  4 40  1  0
  4 90  1  0
  5  6  1  0
  5 10  1  0
  6  7  1  0
  6 41  1  0
  7  8  1  0
  7 42  1  0
  8  9  1  0
  8 43  1  0
  9 10  1  0
  9 44  1  0
 10 45  1  0
 11 46  1  0
 11 79  1  0
 11 80  1  0
 12 19  1  0
 12 47  1  0
 12 89  1  0
 13 14  1  0
 13 18  1  0
 14 15  1  0
 14 61  1  0
 15 16  1  0
 15 64  1  0
 16 17  1  0
 16 36  1  0
 17 18  1  0
 17 66  1  0
 18 38  1  0
 19 21  1  0
 19 51  1  0
 19 91  1  0
 20 22  1  0
 20 80  1  0
 20 83  1  0
 21 23  1  0
 21 57  1  0
 21 92  1  0
 22 24  1  0
 22 82  1  0
 23 25  1  0
 23 59  1  0
 23 60  1  0
 24 79  1  0
 24 81  1  0
 25 26  1  0
 25 54  1  0
 25 55  1  0
 26 52  1  0
 26 53  1  0
 26 85  1  0
 27 65  1  0
 27 82  1  0
 27 83  1  0
 28 78  1  0
 28 88  1  0
 28 90  1  0
 29 30  1  0
 29 67  1  0
 29 73  1  0
 29 74  1  0
 29 78  1  0
 30 32  1  0
 30 68  1  0
 30 69  1  0
 30 73  1  0
 30 74  1  0
 31 32  1  0
 31 70  1  0
 31 71  1  0
 31 73  1  0
 31 74  1  0
 31 84  1  0
 32 73  1  0
 32 74  1  0
 33 48  1  0
 33 49  1  0
 33 50  1  0
 33 85  1  0
 34 84  1  0
 34 85  1  0
 34 86  1  0
 35 78  1  0
 62 81  1  0
 63 81  1  0
 69 73  1  0
 71 73  1  0
 72 84  1  0
 73 74  1  0
 74 78  1  0
 74 84  1  0
 75 86  1  0
 76 89  1  0
 77 91  1  0
M  END
$$$$
