9i1t_D_A01_501
     RDKit          3D

 90106  0  0  0  0  0  0  0  0999 V2000
   46.9970   17.7600  186.1270 C   0  0  0  0  0  3  0  0  0  0  0  0
   46.1110   16.5600  184.2990 C   0  0  0  0  0  0  0  0  0  0  0  0
   52.4230   22.5280  195.4410 C   0  0  0  0  0  0  0  0  0  0  0  0
   46.5760   23.5380  185.6240 C   0  0  0  0  0  0  0  0  0  0  0  0
   46.1260   24.5500  186.6360 C   0  0  0  0  0  3  0  0  0  0  0  0
   46.9110   25.6570  186.9330 C   0  0  0  0  0  3  0  0  0  0  0  0
   46.4640   26.6220  187.8210 C   0  0  0  0  0  3  0  0  0  0  0  0
   45.2320   26.4920  188.4270 C   0  0  0  0  0  3  0  0  0  0  0  0
   44.4490   25.3940  188.1470 C   0  0  0  0  0  3  0  0  0  0  0  0
   44.8910   24.4270  187.2600 C   0  0  0  0  0  3  0  0  0  0  0  0
   54.7820   25.0040  198.1640 C   0  0  0  0  0  3  0  0  0  0  0  0
   50.9790   22.4010  194.9450 C   0  0  0  0  0  0  0  0  0  0  0  0
   45.6560   15.1570  184.5540 C   0  0  0  0  0  3  0  0  0  0  0  0
   46.1200   14.4400  185.6490 C   0  0  0  0  0  3  0  0  0  0  0  0
   45.7820   13.1070  185.8130 C   0  0  0  0  0  3  0  0  0  0  0  0
   44.9700   12.4770  184.8940 C   0  0  0  0  0  3  0  0  0  0  0  0
   44.4900   13.1830  183.8120 C   0  0  0  0  0  3  0  0  0  0  0  0
   44.8280   14.5150  183.6430 C   0  0  0  0  0  3  0  0  0  0  0  0
   50.9640   20.9520  194.4600 C   0  0  0  0  0  0  0  0  0  0  0  0
   53.7140   24.5350  196.2930 C   0  0  0  0  0  3  0  0  0  0  0  0
   52.3510   20.8100  193.8420 C   0  0  0  0  0  0  0  0  0  0  0  0
   54.0180   25.7720  195.7470 C   0  0  0  0  0  3  0  0  0  0  0  0
   52.4860   21.2300  192.3920 C   0  0  0  0  0  0  0  0  0  0  0  0
   54.7770   26.6520  196.5400 C   0  0  0  0  0  3  0  0  0  0  0  0
   53.4500   20.3680  191.5840 C   0  0  0  0  0  0  0  0  0  0  0  0
   53.0910   20.3650  190.1080 C   0  0  0  0  0  0  0  0  0  0  0  0
   52.8800   24.7390  194.2820 C   0  0  0  0  0  3  0  0  0  0  0  0
   47.1210   21.2490  185.4680 C   0  0  0  0  0  3  0  0  0  0  0  0
   47.7200   18.9100  185.4460 C   0  0  0  0  0  5  0  0  0  0  0  0
   49.1900   18.5520  185.1980 C   0  0  0  0  0  6  0  0  0  0  0  0
   50.2500   18.4390  187.4920 C   0  0  0  0  0  6  0  0  0  0  0  0
   50.1910   19.1690  186.1660 C   0  0  0  0  0  0  0  0  0  0  0  0
   52.4480   18.4390  188.6540 C   0  0  0  0  0  3  0  0  0  0  0  0
   47.8250   20.2200  187.1260 H   0  0  0  0  0  2  0  0  0  0  0  0
   44.7120   11.4270  185.0260 H   0  0  0  0  0  0  0  0  0  0  0  0
   52.5420   22.2010  196.4730 H   0  0  0  0  0  0  0  0  0  0  0  0
   46.7550   14.9230  186.3900 H   0  0  0  0  0  0  0  0  0  0  0  0
   47.3760   23.9390  185.0040 H   0  0  0  0  0  0  0  0  0  0  0  0
   45.7590   23.2670  184.9570 H   0  0  0  0  0  0  0  0  0  0  0  0
   47.8870   25.7640  186.4620 H   0  0  0  0  0  0  0  0  0  0  0  0
   47.0910   27.4850  188.0380 H   0  0  0  0  0  0  0  0  0  0  0  0
   44.8810   27.2530  189.1220 H   0  0  0  0  0  0  0  0  0  0  0  0
   43.4760   25.2800  188.6240 H   0  0  0  0  0  0  0  0  0  0  0  0
   44.2580   23.5650  187.0560 H   0  0  0  0  0  0  0  0  0  0  0  0
   55.1160   24.7280  199.1630 H   0  0  0  0  0  0  0  0  0  0  0  0
   50.6840   23.1460  194.2080 H   0  0  0  0  0  0  0  0  0  0  0  0
   52.0470   20.6490  189.9870 H   0  0  0  0  0  0  0  0  0  0  0  0
   53.6670   21.1320  189.5930 H   0  0  0  0  0  0  0  0  0  0  0  0
   50.1740   20.7700  193.7330 H   0  0  0  0  0  0  0  0  0  0  0  0
   53.4560   19.3540  191.9810 H   0  0  0  0  0  0  0  0  0  0  0  0
   54.4690   20.7210  191.7320 H   0  0  0  0  0  0  0  0  0  0  0  0
   47.1690   16.5470  184.0420 H   0  0  0  0  0  0  0  0  0  0  0  0
   52.7160   19.7900  193.9560 H   0  0  0  0  0  0  0  0  0  0  0  0
   45.5720   16.9550  183.4380 H   0  0  0  0  0  0  0  0  0  0  0  0
   51.4950   21.2230  191.9400 H   0  0  0  0  0  0  0  0  0  0  0  0
   52.7920   22.2750  192.3650 H   0  0  0  0  0  0  0  0  0  0  0  0
   44.4370   15.0610  182.7860 H   0  0  0  0  0  0  0  0  0  0  0  0
   55.8710   28.0100  195.4420 H   0  0  0  0  0  0  0  0  0  0  0  0
   54.7340   28.7130  196.5380 H   0  0  0  0  0  0  0  0  0  0  0  0
   43.8430   12.6940  183.0860 H   0  0  0  0  0  0  0  0  0  0  0  0
   52.3470   24.4930  193.3650 H   0  0  0  0  0  0  0  0  0  0  0  0
   46.1620   12.5590  186.6740 H   0  0  0  0  0  0  0  0  0  0  0  0
   47.2290   19.0070  184.4790 H   0  0  0  0  0  0  0  0  0  0  0  0
   49.4520   18.8280  184.1780 H   0  0  0  0  0  2  0  0  0  0  0  0
   49.2950   17.4680  185.2090 H   0  0  0  0  0  0  0  0  0  0  0  0
   50.4650   17.3830  187.3350 H   0  0  0  0  0  0  0  0  0  0  0  0
   49.2760   18.4570  187.9780 H   0  0  0  0  0  2  0  0  0  0  0  0
   51.0030   19.9190  188.7770 H   0  0  0  0  0  0  0  0  0  0  0  0
   49.9530   20.2190  186.3270 Hg  0  0  0  0  0  9  0  0  0  0  0  0
   51.1800   19.1980  185.7100 Hg  0  0  0  0  0  6  0  0  0  0  0  0
   53.5860   16.8670  188.3140 H   0  0  0  0  0  0  0  0  0  0  0  0
   54.2080   18.6130  189.6930 H   0  0  0  0  0  0  0  0  0  0  0  0
   49.3130   23.1960  195.6700 H   0  0  0  0  0  0  0  0  0  0  0  0
   50.0400   19.4460  195.2880 H   0  0  0  0  0  0  0  0  0  0  0  0
   47.5760   20.1770  186.1430 N   0  0  0  0  0  4  0  0  0  0  0  0
   55.1490   26.2260  197.7680 N   0  0  0  0  0  2  0  0  0  0  0  0
   54.0700   24.0890  197.5030 N   0  0  0  0  0  2  0  0  0  0  0  0
   55.1530   27.8760  196.1460 N   0  0  0  0  0  0  0  0  0  0  0  0
   53.4810   25.8870  194.4720 N   0  0  0  0  0  2  0  0  0  0  0  0
   52.9790   23.8730  195.3410 N   0  0  0  0  0  0  0  0  0  0  0  0
   51.2530   19.0230  188.3720 N   0  0  0  0  0  5  0  0  0  0  0  0
   53.3260   19.0690  189.4860 N   0  0  0  0  0  0  0  0  0  0  0  0
   52.6900   17.2950  188.1030 N   0  0  0  0  0  2  0  0  0  0  0  0
   47.4350   17.1240  187.0460 O   0  0  0  0  0  1  0  0  0  0  0  0
   46.8040   21.2480  184.2980 O   0  0  0  0  0  1  0  0  0  0  0  0
   50.0520   22.6210  196.0010 O   0  0  0  0  0  0  0  0  0  0  0  0
   47.0590   22.3300  186.2680 O   0  0  0  0  0  0  0  0  0  0  0  0
   50.7970   20.0380  195.5380 O   0  0  0  0  0  0  0  0  0  0  0  0
   53.2070   21.6530  194.6460 O   0  0  0  0  0  0  0  0  0  0  0  0
   45.9030   17.4380  185.4410 O   0  0  0  0  0  0  0  0  0  0  0  0
  1 29  1  0
  1 84  1  0
  1 90  1  0
  2 13  1  0
  2 52  1  0
  2 54  1  0
  2 90  1  0
  3 12  1  0
  3 36  1  0
  3 80  1  0
  3 89  1  0
  4  5  1  0
  4 38  1  0
  4 39  1  0
  4 87  1  0
  5  6  1  0
  5 10  1  0
  6  7  1  0
  6 40  1  0
  7  8  1  0
  7 41  1  0
  8  9  1  0
  8 42  1  0
  9 10  1  0
  9 43  1  0
 10 44  1  0
 11 45  1  0
 11 76  1  0
 11 77  1  0
 12 19  1  0
 12 46  1  0
 12 86  1  0
 13 14  1  0
 13 18  1  0
 14 15  1  0
 14 37  1  0
 15 16  1  0
 15 62  1  0
 16 17  1  0
 16 35  1  0
 17 18  1  0
 17 60  1  0
 18 57  1  0
 19 21  1  0
 19 49  1  0
 19 88  1  0
 20 22  1  0
 20 77  1  0
 20 80  1  0
 21 23  1  0
 21 53  1  0
 21 89  1  0
 22 24  1  0
 22 79  1  0
 23 25  1  0
 23 55  1  0
 23 56  1  0
 24 76  1  0
 24 78  1  0
 25 26  1  0
 25 50  1  0
 25 51  1  0
 26 47  1  0
 26 48  1  0
 26 82  1  0
 27 61  1  0
 27 79  1  0
 27 80  1  0
 28 75  1  0
 28 85  1  0
 28 87  1  0
 29 30  1  0
 29 63  1  0
 29 69  1  0
 29 75  1  0
 30 32  1  0
 30 64  1  0
 30 65  1  0
 30 69  1  0
 30 70  1  0
 31 32  1  0
 31 66  1  0
 31 67  1  0
 31 69  1  0
 31 70  1  0
 31 81  1  0
 32 69  1  0
 32 70  1  0
 33 81  1  0
 33 82  1  0
 33 83  1  0
 34 69  1  0
 34 75  1  0
 58 78  1  0
 59 78  1  0
 64 70  1  0
 67 69  1  0
 68 81  1  0
 69 70  1  0
 69 75  1  0
 69 81  1  0
 70 81  1  0
 71 83  1  0
 72 82  1  0
 73 86  1  0
 74 88  1  0
M  END
$$$$
