9i1t_B_A01_501
     RDKit          3D

 90108  0  0  0  0  0  0  0  0999 V2000
   29.5770   18.7750  126.8060 C   0  0  0  0  0  3  0  0  0  0  0  0
   29.6270   17.0900  128.4450 C   0  0  0  0  0  0  0  0  0  0  0  0
   24.4980   23.5500  117.7900 C   0  0  0  0  0  0  0  0  0  0  0  0
   28.9710   24.4600  127.0940 C   0  0  0  0  0  0  0  0  0  0  0  0
   30.0080   25.0730  126.1960 C   0  0  0  0  0  3  0  0  0  0  0  0
   30.1050   24.6900  124.8650 C   0  0  0  0  0  3  0  0  0  0  0  0
   31.0870   25.2220  124.0460 C   0  0  0  0  0  3  0  0  0  0  0  0
   31.9840   26.1420  124.5450 C   0  0  0  0  0  3  0  0  0  0  0  0
   31.8930   26.5380  125.8620 C   0  0  0  0  0  3  0  0  0  0  0  0
   30.9100   26.0110  126.6830 C   0  0  0  0  0  3  0  0  0  0  0  0
   22.6300   25.9660  114.6780 C   0  0  0  0  0  3  0  0  0  0  0  0
   25.8240   23.3850  118.5370 C   0  0  0  0  0  0  0  0  0  0  0  0
   29.7890   15.6040  128.5080 C   0  0  0  0  0  3  0  0  0  0  0  0
   30.3450   15.0080  129.6320 C   0  0  0  0  0  3  0  0  0  0  0  0
   30.4910   13.6330  129.7020 C   0  0  0  0  0  3  0  0  0  0  0  0
   30.0850   12.8370  128.6520 C   0  0  0  0  0  3  0  0  0  0  0  0
   29.5290   13.4170  127.5320 C   0  0  0  0  0  3  0  0  0  0  0  0
   29.3810   14.7930  127.4580 C   0  0  0  0  0  3  0  0  0  0  0  0
   25.6920   21.9580  119.0670 C   0  0  0  0  0  0  0  0  0  0  0  0
   23.4170   25.5550  116.6940 C   0  0  0  0  0  3  0  0  0  0  0  0
   24.2100   21.8830  119.4130 C   0  0  0  0  0  0  0  0  0  0  0  0
   23.0700   26.8170  117.1480 C   0  0  0  0  0  3  0  0  0  0  0  0
   23.8140   22.3460  120.7990 C   0  0  0  0  0  0  0  0  0  0  0  0
   22.4470   27.6780  116.2240 C   0  0  0  0  0  3  0  0  0  0  0  0
   24.1530   21.3380  121.8880 C   0  0  0  0  0  0  0  0  0  0  0  0
   23.2400   21.4810  123.0900 C   0  0  0  0  0  0  0  0  0  0  0  0
   23.9520   25.8160  118.7980 C   0  0  0  0  0  3  0  0  0  0  0  0
   28.8190   22.1030  127.4320 C   0  0  0  0  0  0  0  0  0  0  0  0
   28.5750   19.6760  127.5080 C   0  0  0  0  0  5  0  0  0  0  0  0
   27.2070   18.9980  127.6310 C   0  0  0  0  0  6  0  0  0  0  0  0
   26.1300   19.3210  125.3840 C   0  0  0  0  0  6  0  0  0  0  0  0
   26.0730   19.6610  126.8580 C   0  0  0  0  0  0  0  0  0  0  0  0
   23.8140   19.4810  124.4420 C   0  0  0  0  0  3  0  0  0  0  0  0
   28.1610   20.9410  125.8610 H   0  0  0  0  0  2  0  0  0  0  0  0
   30.2040   11.7560  128.7110 H   0  0  0  0  0  0  0  0  0  0  0  0
   24.5550   23.2030  116.7590 H   0  0  0  0  0  0  0  0  0  0  0  0
   30.6720   15.6200  130.4710 H   0  0  0  0  0  0  0  0  0  0  0  0
   29.3300   24.3720  128.1180 H   0  0  0  0  0  0  0  0  0  0  0  0
   28.0630   25.0600  127.1230 H   0  0  0  0  0  0  0  0  0  0  0  0
   29.4000   23.9640  124.4630 H   0  0  0  0  0  0  0  0  0  0  0  0
   31.1480   24.9100  123.0050 H   0  0  0  0  0  0  0  0  0  0  0  0
   32.7610   26.5540  123.9020 H   0  0  0  0  0  0  0  0  0  0  0  0
   32.5940   27.2680  126.2640 H   0  0  0  0  0  0  0  0  0  0  0  0
   30.8510   26.3410  127.7190 H   0  0  0  0  0  0  0  0  0  0  0  0
   22.4320   25.6570  113.6530 H   0  0  0  0  0  0  0  0  0  0  0  0
   26.0260   24.1390  119.2960 H   0  0  0  0  0  0  0  0  0  0  0  0
   23.7030   22.1410  123.8220 H   0  0  0  0  0  0  0  0  0  0  0  0
   22.3180   21.9760  122.7890 H   0  0  0  0  0  0  0  0  0  0  0  0
   26.3150   21.7770  119.9420 H   0  0  0  0  0  0  0  0  0  0  0  0
   24.0990   20.3290  121.4820 H   0  0  0  0  0  0  0  0  0  0  0  0
   25.1960   21.4540  122.1820 H   0  0  0  0  0  0  0  0  0  0  0  0
   30.5400   17.5720  128.7900 H   0  0  0  0  0  0  0  0  0  0  0  0
   23.8390   20.8720  119.2540 H   0  0  0  0  0  0  0  0  0  0  0  0
   28.8230   17.3990  129.1120 H   0  0  0  0  0  0  0  0  0  0  0  0
   24.2950   23.3030  120.9960 H   0  0  0  0  0  0  0  0  0  0  0  0
   22.7480   22.5690  120.8000 H   0  0  0  0  0  0  0  0  0  0  0  0
   28.9410   15.2380  126.5660 H   0  0  0  0  0  0  0  0  0  0  0  0
   22.5530   29.7350  116.1400 H   0  0  0  0  0  0  0  0  0  0  0  0
   21.2630   29.1140  117.1090 H   0  0  0  0  0  0  0  0  0  0  0  0
   29.2030   12.7940  126.7000 H   0  0  0  0  0  0  0  0  0  0  0  0
   24.3390   25.5940  119.7910 H   0  0  0  0  0  0  0  0  0  0  0  0
   30.9290   13.1840  130.5920 H   0  0  0  0  0  0  0  0  0  0  0  0
   28.9420   19.8170  128.5230 H   0  0  0  0  0  0  0  0  0  0  0  0
   26.9400   18.9330  128.6850 H   0  0  0  0  0  2  0  0  0  0  0  0
   27.3000   17.9590  127.3210 H   0  0  0  0  0  0  0  0  0  0  0  0
   27.1000   19.5980  124.9730 H   0  0  0  0  0  0  0  0  0  0  0  0
   26.0650   18.2420  125.2460 H   0  0  0  0  0  0  0  0  0  0  0  0
   25.3380   20.8670  124.2190 H   0  0  0  0  0  0  0  0  0  0  0  0
   26.1000   20.7400  127.0010 Hg  0  0  0  0  0  9  0  0  0  0  0  0
   25.1110   19.3710  127.2780 Hg  0  0  0  0  0  8  0  0  0  0  0  0
   24.1610   17.8960  125.5670 H   0  0  0  0  0  2  0  0  0  0  0  0
   22.0010   19.8250  123.5630 H   0  0  0  0  0  0  0  0  0  0  0  0
   27.6390   24.0360  118.0730 H   0  0  0  0  0  0  0  0  0  0  0  0
   26.9750   21.1980  117.8080 H   0  0  0  0  0  0  0  0  0  0  0  0
   28.4860   20.9530  126.8220 N   0  0  0  0  0  4  0  0  0  0  0  0
   22.2370   27.2080  114.9740 N   0  0  0  0  0  2  0  0  0  0  0  0
   23.2250   25.0670  115.4650 N   0  0  0  0  0  2  0  0  0  0  0  0
   22.0610   28.9280  116.5110 N   0  0  0  0  0  0  0  0  0  0  0  0
   23.4160   26.9700  118.4820 N   0  0  0  0  0  2  0  0  0  0  0  0
   23.9830   24.9140  117.7670 N   0  0  0  0  0  0  0  0  0  0  0  0
   25.0730   19.9750  124.6260 N   0  0  0  0  0  5  0  0  0  0  0  0
   22.9350   20.1970  123.7040 N   0  0  0  0  0  0  0  0  0  0  0  0
   23.4640   18.3590  124.9930 N   0  0  0  0  0  0  0  0  0  0  0  0
   30.5380   19.1670  126.2040 O   0  0  0  0  0  1  0  0  0  0  0  0
   29.2100   22.2010  128.5770 O   0  0  0  0  0  1  0  0  0  0  0  0
   26.9120   23.5230  117.6310 O   0  0  0  0  0  0  0  0  0  0  0  0
   28.6540   23.1380  126.5850 O   0  0  0  0  0  0  0  0  0  0  0  0
   26.0370   21.0030  118.0700 O   0  0  0  0  0  0  0  0  0  0  0  0
   23.5490   22.7220  118.4400 O   0  0  0  0  0  0  0  0  0  0  0  0
   29.3300   17.5010  127.0850 O   0  0  0  0  0  0  0  0  0  0  0  0
  1 29  1  0
  1 84  1  0
  1 90  1  0
  2 13  1  0
  2 52  1  0
  2 54  1  0
  2 90  1  0
  3 12  1  0
  3 36  1  0
  3 80  1  0
  3 89  1  0
  4  5  1  0
  4 38  1  0
  4 39  1  0
  4 87  1  0
  5  6  1  0
  5 10  1  0
  6  7  1  0
  6 40  1  0
  7  8  1  0
  7 41  1  0
  8  9  1  0
  8 42  1  0
  9 10  1  0
  9 43  1  0
 10 44  1  0
 11 45  1  0
 11 76  1  0
 11 77  1  0
 12 19  1  0
 12 46  1  0
 12 86  1  0
 13 14  1  0
 13 18  1  0
 14 15  1  0
 14 37  1  0
 15 16  1  0
 15 62  1  0
 16 17  1  0
 16 35  1  0
 17 18  1  0
 17 60  1  0
 18 57  1  0
 19 21  1  0
 19 49  1  0
 19 88  1  0
 20 22  1  0
 20 77  1  0
 20 80  1  0
 21 23  1  0
 21 53  1  0
 21 89  1  0
 22 24  1  0
 22 79  1  0
 23 25  1  0
 23 55  1  0
 23 56  1  0
 24 76  1  0
 24 78  1  0
 25 26  1  0
 25 50  1  0
 25 51  1  0
 26 47  1  0
 26 48  1  0
 26 82  1  0
 27 61  1  0
 27 79  1  0
 27 80  1  0
 28 69  1  0
 28 75  1  0
 28 85  1  0
 28 87  1  0
 29 30  1  0
 29 63  1  0
 29 69  1  0
 29 75  1  0
 30 32  1  0
 30 64  1  0
 30 65  1  0
 30 69  1  0
 30 70  1  0
 31 32  1  0
 31 66  1  0
 31 67  1  0
 31 69  1  0
 31 70  1  0
 31 81  1  0
 32 69  1  0
 32 70  1  0
 33 81  1  0
 33 82  1  0
 33 83  1  0
 34 69  1  0
 34 75  1  0
 58 78  1  0
 59 78  1  0
 64 70  1  0
 68 81  1  0
 69 70  1  0
 69 75  1  0
 69 81  1  0
 70 71  1  0
 70 81  1  0
 70 83  1  0
 71 83  1  0
 72 82  1  0
 73 86  1  0
 74 88  1  0
M  END
$$$$
