9i9u_D_A02_501
     RDKit          3D

 93 97  0  0  0  0  0  0  0  0999 V2000
   48.4810   18.1010  182.9490 C   0  0  0  0  0  3  0  0  0  0  0  0
   46.6010   17.4650  181.6000 C   0  0  0  0  0  0  0  0  0  0  0  0
   45.5890   21.8180  184.7030 C   0  0  0  0  0  0  0  0  0  0  0  0
   45.7870   23.1340  185.5060 C   0  0  0  0  0  3  0  0  0  0  0  0
   45.0990   23.3230  186.8570 C   0  0  0  0  0  3  0  0  0  0  0  0
   45.2660   24.4420  187.5440 C   0  0  0  0  0  3  0  0  0  0  0  0
   46.1560   25.5450  186.9890 C   0  0  0  0  0  3  0  0  0  0  0  0
   46.7570   25.3840  185.8220 C   0  0  0  0  0  3  0  0  0  0  0  0
   46.5610   24.0950  185.0280 C   0  0  0  0  0  3  0  0  0  0  0  0
   49.8690   17.5130  185.0120 C   0  0  0  0  0  0  0  0  0  0  0  0
   50.8260   18.1110  186.1000 C   0  0  0  0  0  0  0  0  0  0  0  0
   49.9990   18.5180  187.3890 C   0  0  0  0  0  0  0  0  0  0  0  0
   45.8950   18.7120  181.0260 C   0  0  0  0  0  3  0  0  0  0  0  0
   51.8930   19.1690  188.9370 C   0  0  0  0  0  3  0  0  0  0  0  0
   53.4520   20.9110  188.4400 C   0  0  0  0  0  0  0  0  0  0  0  0
   52.2750   18.0270  191.1310 C   0  0  0  0  0  0  0  0  0  0  0  0
   51.5010   18.7200  192.2790 C   0  0  0  0  0  0  0  0  0  0  0  0
   52.2760   20.0110  192.7310 C   0  0  0  0  0  0  0  0  0  0  0  0
   52.0060   20.2790  194.2010 C   0  0  0  0  0  0  0  0  0  0  0  0
   52.0950   22.4130  195.3870 C   0  0  0  0  0  0  0  0  0  0  0  0
   52.6840   24.2680  194.1310 C   0  0  0  0  0  3  0  0  0  0  0  0
   53.8760   25.3460  195.7050 C   0  0  0  0  0  3  0  0  0  0  0  0
   54.6300   26.0990  196.5590 C   0  0  0  0  0  3  0  0  0  0  0  0
   46.6320   19.6930  180.5130 C   0  0  0  0  0  3  0  0  0  0  0  0
   54.3220   24.4950  198.1730 C   0  0  0  0  0  3  0  0  0  0  0  0
   53.3690   24.1220  196.2210 C   0  0  0  0  0  3  0  0  0  0  0  0
   50.7990   22.2850  194.7530 C   0  0  0  0  0  0  0  0  0  0  0  0
   50.6340   20.8440  194.3950 C   0  0  0  0  0  0  0  0  0  0  0  0
   45.9480   20.9430  179.9400 C   0  0  0  0  0  3  0  0  0  0  0  0
   44.6320   21.0460  179.9590 C   0  0  0  0  0  3  0  0  0  0  0  0
   43.7840   19.9170  180.5470 C   0  0  0  0  0  3  0  0  0  0  0  0
   44.3710   18.8320  181.0440 C   0  0  0  0  0  3  0  0  0  0  0  0
   49.0650   18.6130  184.2680 C   0  0  0  0  0  0  0  0  0  0  0  0
   47.4830   20.4350  185.1310 C   0  0  0  0  0  3  0  0  0  0  0  0
   49.7390   19.4310  184.0500 H   0  0  0  0  0  0  0  0  0  0  0  0
   52.1100   19.3470  194.7380 H   0  0  0  0  0  0  0  0  0  0  0  0
   43.7690   18.0330  181.4620 H   0  0  0  0  0  0  0  0  0  0  0  0
   47.5040   18.3610  185.7120 H   0  0  0  0  0  0  0  0  0  0  0  0
   46.0990   21.8950  183.7510 H   0  0  0  0  0  0  0  0  0  0  0  0
   44.5330   21.6520  184.5340 H   0  0  0  0  0  0  0  0  0  0  0  0
   44.4720   22.5400  187.2530 H   0  0  0  0  0  0  0  0  0  0  0  0
   44.7720   24.5720  188.4960 H   0  0  0  0  0  0  0  0  0  0  0  0
   46.2970   26.4630  187.5500 H   0  0  0  0  0  0  0  0  0  0  0  0
   47.3880   26.1670  185.4300 H   0  0  0  0  0  0  0  0  0  0  0  0
   47.0550   23.9670  184.0740 H   0  0  0  0  0  0  0  0  0  0  0  0
   49.1730   16.8390  185.4930 H   0  0  0  0  0  0  0  0  0  0  0  0
   50.7340   22.8910  193.8570 H   0  0  0  0  0  0  0  0  0  0  0  0
   50.4610   16.9660  184.2900 H   0  0  0  0  0  0  0  0  0  0  0  0
   51.3210   18.9900  185.6980 H   0  0  0  0  0  0  0  0  0  0  0  0
   51.5700   17.3680  186.3700 H   0  0  0  0  0  0  0  0  0  0  0  0
   49.0780   17.9500  187.3970 H   0  0  0  0  0  0  0  0  0  0  0  0
   49.7710   19.5740  187.3280 H   0  0  0  0  0  0  0  0  0  0  0  0
   53.2110   21.3940  189.3810 H   0  0  0  0  0  0  0  0  0  0  0  0
   53.7420   21.6610  187.7120 H   0  0  0  0  0  0  0  0  0  0  0  0
   54.2730   20.2170  188.5890 H   0  0  0  0  0  0  0  0  0  0  0  0
   50.0500   20.7580  193.4900 H   0  0  0  0  0  0  0  0  0  0  0  0
   51.6220   17.3200  190.6260 H   0  0  0  0  0  0  0  0  0  0  0  0
   53.1350   17.5000  191.5380 H   0  0  0  0  0  0  0  0  0  0  0  0
   50.5110   18.9960  191.9320 H   0  0  0  0  0  0  0  0  0  0  0  0
   51.4130   18.0390  193.1190 H   0  0  0  0  0  0  0  0  0  0  0  0
   51.9420   20.8570  192.1430 H   0  0  0  0  0  0  0  0  0  0  0  0
   53.3390   19.8640  192.5810 H   0  0  0  0  0  0  0  0  0  0  0  0
   51.9720   22.3050  196.4570 H   0  0  0  0  0  0  0  0  0  0  0  0
   51.9010   24.1080  193.4050 H   0  0  0  0  0  0  0  0  0  0  0  0
   54.7230   27.9090  195.4350 H   0  0  0  0  0  0  0  0  0  0  0  0
   56.0590   27.6680  196.5130 H   0  0  0  0  0  0  0  0  0  0  0  0
   47.4220   17.1780  180.9510 H   0  0  0  0  0  0  0  0  0  0  0  0
   54.5300   24.1890  199.1890 H   0  0  0  0  0  0  0  0  0  0  0  0
   50.2140   23.1330  196.4150 H   0  0  0  0  0  0  0  0  0  0  0  0
   49.4510   20.7510  195.9410 H   0  0  0  0  0  0  0  0  0  0  0  0
   52.5070   19.7390  187.0810 H   0  0  0  0  0  0  0  0  0  0  0  0
   53.6560   18.8110  189.8730 H   0  0  0  0  0  0  0  0  0  0  0  0
   45.8930   16.6440  181.6730 H   0  0  0  0  0  0  0  0  0  0  0  0
   47.7130   19.6100  180.4990 H   0  0  0  0  0  0  0  0  0  0  0  0
   46.5480   21.7440  179.5190 H   0  0  0  0  0  0  0  0  0  0  0  0
   44.1490   21.9350  179.5550 H   0  0  0  0  0  0  0  0  0  0  0  0
   42.7050   20.0010  180.5580 H   0  0  0  0  0  0  0  0  0  0  0  0
   47.9520   19.0330  185.1240 N   0  0  0  0  0  0  0  0  0  0  0  0
   50.7190   18.2660  188.6750 N   0  0  0  0  0  2  0  0  0  0  0  0
   52.2840   20.1850  187.9520 N   0  0  0  0  0  0  0  0  0  0  0  0
   52.7360   19.0610  190.1620 N   0  0  0  0  0  0  0  0  0  0  0  0
   52.7340   23.6700  195.2210 N   0  0  0  0  0  0  0  0  0  0  0  0
   53.3940   25.4390  194.2240 N   0  0  0  0  0  2  0  0  0  0  0  0
   55.1960   27.3550  196.1170 N   0  0  0  0  0  0  0  0  0  0  0  0
   54.8530   25.6720  197.7950 N   0  0  0  0  0  2  0  0  0  0  0  0
   53.5610   23.6470  197.4470 N   0  0  0  0  0  2  0  0  0  0  0  0
   49.1810   17.9780  182.0040 O   0  0  0  0  0  1  0  0  0  0  0  0
   47.0930   17.7790  182.8750 O   0  0  0  0  0  0  0  0  0  0  0  0
   48.2440   21.3230  184.8880 O   0  0  0  0  0  1  0  0  0  0  0  0
   46.1300   20.7260  185.4460 O   0  0  0  0  0  0  0  0  0  0  0  0
   52.9410   21.2860  194.7230 O   0  0  0  0  0  0  0  0  0  0  0  0
   49.8010   22.6800  195.6880 O   0  0  0  0  0  0  0  0  0  0  0  0
   50.0010   20.1470  195.4620 O   0  0  0  0  0  0  0  0  0  0  0  0
  1 33  1  0
  1 87  1  0
  1 88  1  0
  2 13  1  0
  2 67  1  0
  2 73  1  0
  2 88  1  0
  3  4  1  0
  3 39  1  0
  3 40  1  0
  3 90  1  0
  4  5  1  0
  4  9  1  0
  5  6  1  0
  5 41  1  0
  6  7  1  0
  6 42  1  0
  7  8  1  0
  7 43  1  0
  8  9  1  0
  8 44  1  0
  9 45  1  0
 10 11  1  0
 10 33  1  0
 10 46  1  0
 10 48  1  0
 11 12  1  0
 11 49  1  0
 11 50  1  0
 12 51  1  0
 12 52  1  0
 12 79  1  0
 13 24  1  0
 13 32  1  0
 14 79  1  0
 14 80  1  0
 14 81  1  0
 15 53  1  0
 15 54  1  0
 15 55  1  0
 15 80  1  0
 16 17  1  0
 16 57  1  0
 16 58  1  0
 16 81  1  0
 17 18  1  0
 17 59  1  0
 17 60  1  0
 18 19  1  0
 18 61  1  0
 18 62  1  0
 19 28  1  0
 19 36  1  0
 19 91  1  0
 20 27  1  0
 20 63  1  0
 20 82  1  0
 20 91  1  0
 21 64  1  0
 21 82  1  0
 21 83  1  0
 22 23  1  0
 22 26  1  0
 22 83  1  0
 23 84  1  0
 23 85  1  0
 24 29  1  0
 24 74  1  0
 25 68  1  0
 25 85  1  0
 25 86  1  0
 26 82  1  0
 26 86  1  0
 27 28  1  0
 27 47  1  0
 27 92  1  0
 28 56  1  0
 28 93  1  0
 29 30  1  0
 29 75  1  0
 30 31  1  0
 30 76  1  0
 31 32  1  0
 31 77  1  0
 32 37  1  0
 33 35  1  0
 33 78  1  0
 34 78  1  0
 34 89  1  0
 34 90  1  0
 38 78  1  0
 65 84  1  0
 66 84  1  0
 69 92  1  0
 70 93  1  0
 71 80  1  0
 72 81  1  0
M  END
$$$$
