9o6h_A_A04_501
     RDKit          3D

 37 41  0  0  0  0  0  0  0  0999 V2000
  -20.4490   26.5460  -11.2530 C   0  0  0  0  0  3  0  0  0  0  0  0
  -20.9030   25.1110   -9.4370 C   0  0  0  0  0  2  0  0  0  0  0  0
  -21.7220   24.4490  -11.4610 C   0  0  0  0  0  3  0  0  0  0  0  0
  -21.1710   25.6060  -12.0770 C   0  0  0  0  0  3  0  0  0  0  0  0
  -22.1980   24.4110  -13.6410 C   0  0  0  0  0  2  0  0  0  0  0  0
  -23.1130   22.3690  -12.2400 C   0  0  0  0  0  3  0  0  0  0  0  0
  -23.2850   20.3910  -13.4720 C   0  0  0  0  0  3  0  0  0  0  0  0
  -23.1240   20.4720  -14.9830 C   0  0  0  0  0  2  0  0  0  0  0  0
  -22.8970   18.8480  -17.5720 C   0  0  0  0  0  2  0  0  0  0  0  0
  -23.3320   20.0300  -18.4580 C   0  0  0  0  0  2  0  0  0  0  0  0
  -22.8560   20.0150  -19.9480 C   0  0  0  0  0  2  0  0  0  0  0  0
  -24.2380   18.0020  -20.6110 C   0  0  0  0  0  2  0  0  0  0  0  0
  -25.1030   18.2680  -21.8770 C   0  0  0  0  0  3  0  0  0  0  0  0
  -26.1900   19.1960  -21.9000 C   0  0  0  0  0  2  0  0  0  0  0  0
  -27.0200   19.4700  -23.0300 C   0  0  0  0  0  3  0  0  0  0  0  0
  -28.1960   20.4900  -23.0410 C   0  0  0  0  0  3  0  0  0  0  0  0
  -28.1200   21.7440  -22.3910 C   0  0  0  0  0  2  0  0  0  0  0  0
  -29.1470   22.7090  -22.3690 C   0  0  0  0  0  2  0  0  0  0  0  0
  -30.3340   22.4290  -23.0300 C   0  0  0  0  0  3  0  0  0  0  0  0
  -30.5030   21.2240  -23.6980 C   0  0  0  0  0  2  0  0  0  0  0  0
  -29.4440   20.2830  -23.6960 C   0  0  0  0  0  2  0  0  0  0  0  0
  -26.6810   18.7220  -24.1740 C   0  0  0  0  0  2  0  0  0  0  0  0
  -25.6240   17.7950  -24.1970 C   0  0  0  0  0  2  0  0  0  0  0  0
  -24.8440   17.5720  -23.0590 C   0  0  0  0  0  2  0  0  0  0  0  0
  -24.7090   20.8110  -13.0990 C   0  0  0  0  0  3  0  0  0  0  0  0
  -24.4830   22.3220  -12.9760 C   0  0  0  0  0  3  0  0  0  0  0  0
  -31.6490   23.6280  -23.0180 Cl  0  0  0  0  0  0  0  0  0  0  0  0
  -19.8720   27.7030  -11.7060 N   0  0  0  0  0  1  0  0  0  0  0  0
  -20.3310   26.2630   -9.9000 N   0  0  0  0  0  2  0  0  0  0  0  0
  -21.6000   24.1730  -10.1210 N   0  0  0  0  0  2  0  0  0  0  0  0
  -21.4920   25.5510  -13.4500 N   0  0  0  0  0  2  0  0  0  0  0  0
  -22.3670   23.6810  -12.4380 N   0  0  0  0  0  0  0  0  0  0  0  0
  -22.8750   18.6350  -20.5520 N   0  0  0  0  0  2  0  0  0  0  0  0
  -22.3950   21.2900  -12.8050 O   0  0  0  0  0  0  0  0  0  0  0  0
  -25.0800   20.2450  -11.8980 O   0  0  0  0  0  1  0  0  0  0  0  0
  -25.4200   22.8790  -12.1230 O   0  0  0  0  0  1  0  0  0  0  0  0
  -23.6250   18.9310  -15.8600 S   0  0  0  0  0  0  0  0  0  0  0  0
  1  4  1  0
  1 28  1  0
  1 29  1  0
  2 29  1  0
  2 30  1  0
  3  4  1  0
  3 30  1  0
  3 32  1  0
  4 31  1  0
  5 31  1  0
  5 32  1  0
  6 26  1  0
  6 32  1  0
  6 34  1  0
  7  8  1  0
  7 25  1  0
  7 34  1  0
  8 37  1  0
  9 10  1  0
  9 37  1  0
 10 11  1  0
 11 33  1  0
 12 13  1  0
 12 33  1  0
 13 14  1  0
 13 24  1  0
 14 15  1  0
 15 16  1  0
 15 22  1  0
 16 17  1  0
 16 21  1  0
 17 18  1  0
 18 19  1  0
 19 20  1  0
 19 27  1  0
 20 21  1  0
 22 23  1  0
 23 24  1  0
 25 26  1  0
 25 35  1  0
 26 36  1  0
M  END
$$$$
