10zb_B_THG_1502
     RDKit          3D

 32 34  0  0  0  0  0  0  0  0999 V2000
   24.0660   19.9030   25.0710 C   0  0  0  0  0  3  0  0  0  0  0  0
   21.2680   18.8600   21.6090 C   0  0  0  0  0  3  0  0  0  0  0  0
   22.2420   18.9530   22.7310 C   0  0  0  0  0  3  0  0  0  0  0  0
   20.4140   17.7770   13.3600 C   0  0  0  0  0  3  0  0  0  0  0  0
   21.7620   18.8860   20.2930 C   0  0  0  0  0  2  0  0  0  0  0  0
   20.9120   18.8050   19.2060 C   0  0  0  0  0  2  0  0  0  0  0  0
   19.2790   16.6500   15.1940 C   0  0  0  0  0  3  0  0  0  0  0  0
   19.5150   18.7050   19.3890 C   0  0  0  0  0  3  0  0  0  0  0  0
   18.4450   17.7880   15.2560 C   0  0  0  0  0  3  0  0  0  0  0  0
   19.0180   18.6680   20.7060 C   0  0  0  0  0  2  0  0  0  0  0  0
   17.0300   19.1980   16.6360 C   0  0  0  0  0  3  0  0  0  0  0  0
   19.8840   18.7470   21.7870 C   0  0  0  0  0  2  0  0  0  0  0  0
   16.7880   20.0740   15.3960 C   0  0  0  0  0  2  0  0  0  0  0  0
   18.6580   18.8340   14.3680 C   0  0  0  0  0  3  0  0  0  0  0  0
   18.0680   19.7290   17.6220 C   0  0  0  0  0  2  0  0  0  0  0  0
   22.5120   19.7430   25.0950 C   0  0  0  0  0  3  0  0  0  0  0  0
   21.9690   18.5930   25.9590 C   0  0  0  0  0  2  0  0  0  0  0  0
   21.1430   18.5370   28.4220 C   0  0  0  0  0  3  0  0  0  0  0  0
   20.9270   19.0460   26.9830 C   0  0  0  0  0  2  0  0  0  0  0  0
   21.9270   19.7860   23.7470 N   0  0  0  0  0  2  0  0  0  0  0  0
   19.6380   18.8360   13.4180 N   0  0  0  0  0  2  0  0  0  0  0  0
   18.6940   18.6000   18.2900 N   0  0  0  0  0  2  0  0  0  0  0  0
   21.4130   17.7080   12.4380 N   0  0  0  0  0  1  0  0  0  0  0  0
   20.2630   16.7160   14.1980 N   0  0  0  0  0  2  0  0  0  0  0  0
   17.4050   17.8390   16.2220 N   0  0  0  0  0  2  0  0  0  0  0  0
   17.8660   19.9390   14.4200 N   0  0  0  0  0  2  0  0  0  0  0  0
   23.3070   18.3030   22.7040 O   0  0  0  0  0  1  0  0  0  0  0  0
   19.2070   15.6390   15.9240 O   0  0  0  0  0  1  0  0  0  0  0  0
   20.6410   19.2010   29.3750 O   0  0  0  0  0  1  0  0  0  0  0  0
   21.8160   17.4690   28.5500 O   0  0  0  0  0  1  0  0  0  0  0  0
   24.7470   19.1060   25.7810 O   0  0  0  0  0  1  0  0  0  0  0  0
   24.5220   20.8270   24.3390 O   0  0  0  0  0  1  0  0  0  0  0  0
  1 16  1  0
  1 31  1  0
  1 32  1  0
  2  3  1  0
  2  5  1  0
  2 12  1  0
  3 20  1  0
  3 27  1  0
  4 21  1  0
  4 23  1  0
  4 24  1  0
  5  6  1  0
  6  8  1  0
  7  9  1  0
  7 24  1  0
  7 28  1  0
  8 10  1  0
  8 22  1  0
  9 14  1  0
  9 25  1  0
 10 12  1  0
 11 13  1  0
 11 15  1  0
 11 25  1  0
 13 26  1  0
 14 21  1  0
 14 26  1  0
 15 22  1  0
 16 17  1  0
 16 20  1  0
 17 19  1  0
 18 19  1  0
 18 29  1  0
 18 30  1  0
M  END
$$$$
