9o50_B_THG_501
     RDKit          3D

 32 34  0  0  0  0  0  0  0  0999 V2000
   23.1590   20.5030   25.5530 C   0  0  0  0  0  3  0  0  0  0  0  0
   21.3680   20.4610   21.0540 C   0  0  0  0  0  3  0  0  0  0  0  0
   22.6030   20.4500   21.8850 C   0  0  0  0  0  3  0  0  0  0  0  0
   20.3850   19.4450   13.4400 C   0  0  0  0  0  3  0  0  0  0  0  0
   21.4900   20.4900   19.6490 C   0  0  0  0  0  2  0  0  0  0  0  0
   20.3670   20.4970   18.8320 C   0  0  0  0  0  2  0  0  0  0  0  0
   19.1360   18.2790   15.1800 C   0  0  0  0  0  3  0  0  0  0  0  0
   19.0650   20.4800   19.3960 C   0  0  0  0  0  3  0  0  0  0  0  0
   18.2830   19.4030   15.1970 C   0  0  0  0  0  3  0  0  0  0  0  0
   18.9480   20.4520   20.7990 C   0  0  0  0  0  2  0  0  0  0  0  0
   16.7610   20.7780   16.4740 C   0  0  0  0  0  3  0  0  0  0  0  0
   20.0780   20.4410   21.6050 C   0  0  0  0  0  2  0  0  0  0  0  0
   16.5400   21.6190   15.2050 C   0  0  0  0  0  2  0  0  0  0  0  0
   18.5400   20.4640   14.3410 C   0  0  0  0  0  3  0  0  0  0  0  0
   17.8150   21.3520   17.4200 C   0  0  0  0  0  2  0  0  0  0  0  0
   23.6120   20.8320   24.0940 C   0  0  0  0  0  3  0  0  0  0  0  0
   24.4610   22.1060   23.9460 C   0  0  0  0  0  2  0  0  0  0  0  0
   24.4610   24.6860   24.0730 C   0  0  0  0  0  3  0  0  0  0  0  0
   23.6350   23.3870   24.0220 C   0  0  0  0  0  2  0  0  0  0  0  0
   22.4740   20.8260   23.1700 N   0  0  0  0  0  2  0  0  0  0  0  0
   19.5890   20.4930   13.4620 N   0  0  0  0  0  2  0  0  0  0  0  0
   17.9470   20.4830   18.5790 N   0  0  0  0  0  2  0  0  0  0  0  0
   21.4500   19.4160   12.5890 N   0  0  0  0  0  1  0  0  0  0  0  0
   20.1960   18.3670   14.2540 N   0  0  0  0  0  2  0  0  0  0  0  0
   17.1650   19.4250   16.0820 N   0  0  0  0  0  2  0  0  0  0  0  0
   17.7260   21.5560   14.3490 N   0  0  0  0  0  2  0  0  0  0  0  0
   23.7120   20.0970   21.4150 O   0  0  0  0  0  1  0  0  0  0  0  0
   19.0190   17.2540   15.8970 O   0  0  0  0  0  1  0  0  0  0  0  0
   24.8800   25.0400   25.2180 O   0  0  0  0  0  1  0  0  0  0  0  0
   24.6660   25.3130   22.9910 O   0  0  0  0  0  1  0  0  0  0  0  0
   24.0670   20.2640   26.3980 O   0  0  0  0  0  1  0  0  0  0  0  0
   21.9150   20.4990   25.7740 O   0  0  0  0  0  1  0  0  0  0  0  0
  1 16  1  0
  1 31  1  0
  1 32  1  0
  2  3  1  0
  2  5  1  0
  2 12  1  0
  3 20  1  0
  3 27  1  0
  4 21  1  0
  4 23  1  0
  4 24  1  0
  5  6  1  0
  6  8  1  0
  7  9  1  0
  7 24  1  0
  7 28  1  0
  8 10  1  0
  8 22  1  0
  9 14  1  0
  9 25  1  0
 10 12  1  0
 11 13  1  0
 11 15  1  0
 11 25  1  0
 13 26  1  0
 14 21  1  0
 14 26  1  0
 15 22  1  0
 16 17  1  0
 16 20  1  0
 17 19  1  0
 18 19  1  0
 18 29  1  0
 18 30  1  0
M  END
$$$$
