1xs7_D_MMI_386
     RDKit          3D

 52 53  0  0  0  0  0  0  0  0999 V2000
   51.1340   21.9440  105.9880 C   0  0  0  0  0  3  0  0  0  0  0  0
   52.4370   21.5240  105.2040 C   0  0  0  0  0  3  0  0  0  0  0  0
   52.4760   22.1680  103.7940 C   0  0  0  0  0  1  0  0  0  0  0  0
   52.6040   19.9750  105.0300 C   0  0  0  0  0  1  0  0  0  0  0  0
   51.0260   21.3160  107.4150 C   0  0  0  0  0  3  0  0  0  0  0  0
   51.6050   24.3760  106.9810 C   0  0  0  0  0  3  0  0  0  0  0  0
   53.8920   24.6710  107.8410 C   0  0  0  0  0  2  0  0  0  0  0  0
   49.3790   19.9010  108.5280 C   0  0  0  0  0  3  0  0  0  0  0  0
   48.9820   20.0990  110.0240 C   0  0  0  0  0  2  0  0  0  0  0  0
   50.1510   20.5130  110.9630 C   0  0  0  0  0  3  0  0  0  0  0  0
   52.6040   20.4500  111.5040 C   0  0  0  0  0  2  0  0  0  0  0  0
   53.7610   20.9810  110.7070 C   0  0  0  0  0  2  0  0  0  0  0  0
   53.6010   22.4770  110.3890 C   0  0  0  0  0  2  0  0  0  0  0  0
   54.7770   22.9740  109.5200 C   0  0  0  0  0  2  0  0  0  0  0  0
   54.6780   24.4640  109.1470 C   0  0  0  0  0  2  0  0  0  0  0  0
   48.1710   19.2970  107.7500 C   0  0  0  0  0  3  0  0  0  0  0  0
   43.2550   17.2490  109.2880 C   0  0  0  0  0  3  0  0  0  0  0  0
   47.3550   17.2190  106.4860 C   0  0  0  0  0  3  0  0  0  0  0  0
   46.6740   16.1670  107.4360 C   0  0  0  0  0  3  0  0  0  0  0  0
   47.9670   16.5480  105.2070 C   0  0  0  0  0  2  0  0  0  0  0  0
   48.6840   17.5140  104.1880 C   0  0  0  0  0  3  0  0  0  0  0  0
   47.7420   18.6130  103.6260 C   0  0  0  0  0  1  0  0  0  0  0  0
   49.2680   16.7410  102.9860 C   0  0  0  0  0  1  0  0  0  0  0  0
   45.2510   16.6630  107.8600 C   0  0  0  0  0  2  0  0  0  0  0  0
   44.6990   16.6760  109.3370 C   0  0  0  0  0  3  0  0  0  0  0  0
   45.5330   17.4860  110.3460 C   0  0  0  0  0  1  0  0  0  0  0  0
   40.7380   16.5220  109.0140 C   0  0  0  0  0  3  0  0  0  0  0  0
   39.9290   15.1880  108.7480 C   0  0  0  0  0  3  0  0  0  0  0  0
   38.4280   15.4120  108.6060 C   0  0  0  0  0  1  0  0  0  0  0  0
   40.3700   14.4800  107.4640 C   0  0  0  0  0  1  0  0  0  0  0  0
   40.2870   17.2560  110.3100 C   0  0  0  0  0  3  0  0  0  0  0  0
   38.7740   19.1170  111.1790 C   0  0  0  0  0  2  0  0  0  0  0  0
   38.2260   20.4530  110.6640 C   0  0  0  0  0  3  0  0  0  0  0  0
   39.1320   21.5440  110.3960 C   0  0  0  0  0  2  0  0  0  0  0  0
   38.6620   22.8060  109.9160 C   0  0  0  0  0  2  0  0  0  0  0  0
   37.2600   23.0130  109.6980 C   0  0  0  0  0  2  0  0  0  0  0  0
   36.3350   21.9450  109.9570 C   0  0  0  0  0  2  0  0  0  0  0  0
   36.8190   20.6780  110.4390 C   0  0  0  0  0  2  0  0  0  0  0  0
   50.9490   23.4400  106.1260 N   0  0  0  0  0  2  0  0  0  0  0  0
   49.7720   21.1330  107.8500 N   0  0  0  0  0  2  0  0  0  0  0  0
   51.4480   20.1180  110.6110 N   0  0  0  0  0  2  0  0  0  0  0  0
   48.3780   17.9820  107.2780 N   0  0  0  0  0  2  0  0  0  0  0  0
   42.2310   16.2660  109.1380 N   0  0  0  0  0  2  0  0  0  0  0  0
   39.3510   18.2790  110.0950 N   0  0  0  0  0  2  0  0  0  0  0  0
   51.9670   21.0430  108.1150 O   0  0  0  0  0  1  0  0  0  0  0  0
   51.2220   25.5500  106.8670 O   0  0  0  0  0  1  0  0  0  0  0  0
   52.6070   24.0220  107.9090 O   0  0  0  0  0  0  0  0  0  0  0  0
   47.1380   19.9670  107.5740 O   0  0  0  0  0  1  0  0  0  0  0  0
   49.9040   21.1390  111.9940 O   0  0  0  0  0  1  0  0  0  0  0  0
   47.5090   15.8990  108.5840 O   0  0  0  0  0  1  0  0  0  0  0  0
   43.0300   18.4640  109.3390 O   0  0  0  0  0  1  0  0  0  0  0  0
   40.7410   16.9340  111.4010 O   0  0  0  0  0  1  0  0  0  0  0  0
  1  2  1  0
  1  5  1  0
  1 39  1  0
  2  3  1  0
  2  4  1  0
  5 40  1  0
  5 45  1  0
  6 39  1  0
  6 46  1  0
  6 47  1  0
  7 15  1  0
  7 47  1  0
  8  9  1  0
  8 16  1  0
  8 40  1  0
  9 10  1  0
 10 41  1  0
 10 49  1  0
 11 12  1  0
 11 41  1  0
 12 13  1  0
 13 14  1  0
 14 15  1  0
 16 42  1  0
 16 48  1  0
 17 25  1  0
 17 43  1  0
 17 51  1  0
 18 19  1  0
 18 20  1  0
 18 42  1  0
 19 24  1  0
 19 50  1  0
 20 21  1  0
 21 22  1  0
 21 23  1  0
 24 25  1  0
 25 26  1  0
 27 28  1  0
 27 31  1  0
 27 43  1  0
 28 29  1  0
 28 30  1  0
 31 44  1  0
 31 52  1  0
 32 33  1  0
 32 44  1  0
 33 34  1  0
 33 38  1  0
 34 35  1  0
 35 36  1  0
 36 37  1  0
 37 38  1  0
M  END
$$$$
