2f3e_C_AXQ_603
     RDKit          3D

 45 45  0  0  0  0  0  0  0  0999 V2000
    9.6870  -38.7150   50.3080 C   0  0  0  0  0  3  0  0  0  0  0  0
    7.7180  -37.4480   49.6190 C   0  0  0  0  0  3  0  0  0  0  0  0
    6.2220  -37.3970   49.5890 C   0  0  0  0  0  3  0  0  0  0  0  0
    5.8180  -38.3980   48.5090 C   0  0  0  0  0  2  0  0  0  0  0  0
    8.5890  -43.1960   49.0680 C   0  0  0  0  0  2  0  0  0  0  0  0
    4.0670  -40.2510   47.7300 C   0  0  0  0  0  2  0  0  0  0  0  0
    4.3880  -41.3860   48.6770 C   0  0  0  0  0  2  0  0  0  0  0  0
    5.5690  -42.0220   48.6770 C   0  0  0  0  0  2  0  0  0  0  0  0
    5.7990  -43.1870   49.6040 C   0  0  0  0  0  2  0  0  0  0  0  0
    5.9740  -35.0910   50.2720 C   0  0  0  0  0  3  0  0  0  0  0  0
    5.8130  -32.7760   50.8790 C   0  0  0  0  0  0  0  0  0  0  0  0
    5.3070  -31.4310   50.3060 C   0  0  0  0  0  1  0  0  0  0  0  0
    5.0680  -33.0330   52.2200 C   0  0  0  0  0  1  0  0  0  0  0  0
    7.3390  -32.6300   51.1350 C   0  0  0  0  0  1  0  0  0  0  0  0
    9.8750  -42.4550   49.5610 C   0  0  0  0  0  3  0  0  0  0  0  0
   10.3230  -37.7870   51.3850 C   0  0  0  0  0  1  0  0  0  0  0  0
   11.1570  -42.9040   48.7730 C   0  0  0  0  0  3  0  0  0  0  0  0
   12.4270  -42.1300   49.1870 C   0  0  0  0  0  2  0  0  0  0  0  0
   13.6080  -43.0610   48.8660 C   0  0  0  0  0  3  0  0  0  0  0  0
   14.9160  -42.2860   48.6360 C   0  0  0  0  0  1  0  0  0  0  0  0
   13.8670  -43.9290   50.0840 C   0  0  0  0  0  3  0  0  0  0  0  0
   14.6260  -46.0330   50.9750 C   0  0  0  0  0  3  0  0  0  0  0  0
   14.8560  -47.4890   50.5390 C   0  0  0  0  0  3  0  0  0  0  0  0
   16.1550  -47.5760   49.7190 C   0  0  0  0  0  1  0  0  0  0  0  0
   15.0190  -48.4080   51.7710 C   0  0  0  0  0  1  0  0  0  0  0  0
   15.8360  -45.4710   51.7180 C   0  0  0  0  0  3  0  0  0  0  0  0
   17.0290  -45.1290   53.7790 C   0  0  0  0  0  2  0  0  0  0  0  0
    9.9610  -40.2010   50.5260 C   0  0  0  0  0  3  0  0  0  0  0  0
   16.6430  -44.8080   55.2320 C   0  0  0  0  0  2  0  0  0  0  0  0
   15.9480  -43.4480   55.2960 C   0  0  0  0  0  2  0  0  0  0  0  0
   15.5860  -43.1490   56.7620 C   0  0  0  0  0  1  0  0  0  0  0  0
    8.2370  -38.5320   50.2380 N   0  0  0  0  0  2  0  0  0  0  0  0
    5.7560  -36.0360   49.3210 N   0  0  0  0  0  2  0  0  0  0  0  0
    9.6240  -41.0160   49.4840 N   0  0  0  0  0  2  0  0  0  0  0  0
   14.3320  -45.1580   49.8340 N   0  0  0  0  0  2  0  0  0  0  0  0
   15.8810  -45.6610   53.0550 N   0  0  0  0  0  2  0  0  0  0  0  0
    6.5030  -35.3300   51.3530 O   0  0  0  0  0  1  0  0  0  0  0  0
    5.5460  -33.8440   49.8900 O   0  0  0  0  0  0  0  0  0  0  0  0
    8.3660  -36.5490   49.1010 O   0  0  0  0  0  1  0  0  0  0  0  0
   10.4570  -40.6010   51.5720 O   0  0  0  0  0  1  0  0  0  0  0  0
   11.0160  -42.6580   47.3610 O   0  0  0  0  0  1  0  0  0  0  0  0
   13.6440  -43.4920   51.2140 O   0  0  0  0  0  1  0  0  0  0  0  0
   16.6990  -44.8660   51.0830 O   0  0  0  0  0  1  0  0  0  0  0  0
    7.4000  -43.0480   50.4500 S   0  0  0  0  0  0  0  0  0  0  0  0
    4.0660  -38.6550   48.6160 S   0  0  0  0  0  0  0  0  0  0  0  0
  1 16  1  0
  1 28  1  0
  1 32  1  0
  2  3  1  0
  2 32  1  0
  2 39  1  0
  3  4  1  0
  3 33  1  0
  4 45  1  0
  5 15  1  0
  5 44  1  0
  6  7  1  0
  6 45  1  0
  7  8  1  0
  8  9  1  0
  9 44  1  0
 10 33  1  0
 10 37  1  0
 10 38  1  0
 11 12  1  0
 11 13  1  0
 11 14  1  0
 11 38  1  0
 15 17  1  0
 15 34  1  0
 17 18  1  0
 17 41  1  0
 18 19  1  0
 19 20  1  0
 19 21  1  0
 21 35  1  0
 21 42  1  0
 22 23  1  0
 22 26  1  0
 22 35  1  0
 23 24  1  0
 23 25  1  0
 26 36  1  0
 26 43  1  0
 27 29  1  0
 27 36  1  0
 28 34  1  0
 28 40  1  0
 29 30  1  0
 30 31  1  0
M  END
$$$$
