2f3f_C_AXF_603
     RDKit          3D

 34 35  0  0  0  0  0  0  0  0999 V2000
    3.0700  -38.7640   48.7250 C   0  0  0  0  0  2  0  0  0  0  0  0
    4.0270  -39.9580   49.0570 C   0  0  0  0  0  2  0  0  0  0  0  0
    7.3040  -37.8860   49.2590 C   0  0  0  0  0  3  0  0  0  0  0  0
    5.3180  -39.4300   49.7540 C   0  0  0  0  0  3  0  0  0  0  0  0
    9.3940  -38.6680   50.1850 C   0  0  0  0  0  3  0  0  0  0  0  0
    9.9090  -40.0790   50.3790 C   0  0  0  0  0  3  0  0  0  0  0  0
   10.1320  -42.3000   49.4230 C   0  0  0  0  0  3  0  0  0  0  0  0
    9.0510  -43.2500   48.8170 C   0  0  0  0  0  2  0  0  0  0  0  0
    7.3470  -43.1470   51.1490 C   0  0  0  0  0  2  0  0  0  0  0  0
    6.0650  -42.4790   51.5670 C   0  0  0  0  0  2  0  0  0  0  0  0
    6.0860  -41.2530   52.0920 C   0  0  0  0  0  2  0  0  0  0  0  0
    4.8140  -40.4930   52.3800 C   0  0  0  0  0  2  0  0  0  0  0  0
    5.9320  -38.3140   48.8550 C   0  0  0  0  0  3  0  0  0  0  0  0
   11.4820  -42.6260   48.7590 C   0  0  0  0  0  3  0  0  0  0  0  0
   12.6380  -41.7240   49.2530 C   0  0  0  0  0  2  0  0  0  0  0  0
   13.9430  -42.5250   48.9980 C   0  0  0  0  0  3  0  0  0  0  0  0
   15.1630  -41.5940   48.9540 C   0  0  0  0  0  1  0  0  0  0  0  0
   14.1510  -43.5020   50.1320 C   0  0  0  0  0  3  0  0  0  0  0  0
   14.7860  -45.7420   50.8190 C   0  0  0  0  0  2  0  0  0  0  0  0
   15.5300  -46.9380   50.1910 C   0  0  0  0  0  2  0  0  0  0  0  0
   16.1910  -47.8480   51.2630 C   0  0  0  0  0  2  0  0  0  0  0  0
   15.1310  -48.6190   52.0760 C   0  0  0  0  0  1  0  0  0  0  0  0
    9.5680  -37.6990   51.3660 C   0  0  0  0  0  1  0  0  0  0  0  0
    3.8220  -37.7080   47.8710 C   0  0  0  0  0  2  0  0  0  0  0  0
    8.0060  -38.8580   49.8520 N   0  0  0  0  0  2  0  0  0  0  0  0
    9.7290  -40.9180   49.3210 N   0  0  0  0  0  2  0  0  0  0  0  0
   14.5640  -44.7380   49.7840 N   0  0  0  0  0  2  0  0  0  0  0  0
    5.0030  -37.1990   48.6100 N   0  0  0  0  0  2  0  0  0  0  0  0
   11.3670  -42.4980   47.3290 O   0  0  0  0  0  1  0  0  0  0  0  0
   13.9360  -43.1420   51.2890 O   0  0  0  0  0  1  0  0  0  0  0  0
   10.4340  -40.4050   51.4250 O   0  0  0  0  0  1  0  0  0  0  0  0
    7.7100  -36.7480   49.0390 O   0  0  0  0  0  1  0  0  0  0  0  0
    5.0180  -38.8590   51.4950 S   0  0  0  0  0  0  0  0  0  0  0  0
    7.4120  -42.7310   49.3370 S   0  0  0  0  0  0  0  0  0  0  0  0
  1  2  1  0
  1 24  1  0
  2  4  1  0
  3 13  1  0
  3 25  1  0
  3 32  1  0
  4 13  1  0
  4 33  1  0
  5  6  1  0
  5 23  1  0
  5 25  1  0
  6 26  1  0
  6 31  1  0
  7  8  1  0
  7 14  1  0
  7 26  1  0
  8 34  1  0
  9 10  1  0
  9 34  1  0
 10 11  1  0
 11 12  1  0
 12 33  1  0
 13 28  1  0
 14 15  1  0
 14 29  1  0
 15 16  1  0
 16 17  1  0
 16 18  1  0
 18 27  1  0
 18 30  1  0
 19 20  1  0
 19 27  1  0
 20 21  1  0
 21 22  1  0
 24 28  1  0
M  END
$$$$
