2f3f_B_AXF_602
     RDKit          3D

 34 35  0  0  0  0  0  0  0  0999 V2000
   17.3090    1.5310  -15.2620 C   0  0  0  0  0  2  0  0  0  0  0  0
   16.4580    2.7110  -15.8310 C   0  0  0  0  0  2  0  0  0  0  0  0
   18.3640    3.0960  -19.1800 C   0  0  0  0  0  3  0  0  0  0  0  0
   16.5820    2.7580  -17.3690 C   0  0  0  0  0  3  0  0  0  0  0  0
   17.6070    4.3840  -21.0890 C   0  0  0  0  0  3  0  0  0  0  0  0
   16.6210    5.5230  -21.1600 C   0  0  0  0  0  3  0  0  0  0  0  0
   15.8500    7.5950  -20.1530 C   0  0  0  0  0  3  0  0  0  0  0  0
   15.4500    7.9070  -18.6780 C   0  0  0  0  0  2  0  0  0  0  0  0
   13.5010    5.7810  -18.5430 C   0  0  0  0  0  2  0  0  0  0  0  0
   13.3970    4.4000  -17.9340 C   0  0  0  0  0  2  0  0  0  0  0  0
   13.8390    3.3350  -18.6140 C   0  0  0  0  0  2  0  0  0  0  0  0
   13.8830    1.9610  -18.0000 C   0  0  0  0  0  2  0  0  0  0  0  0
   18.0930    2.7890  -17.7470 C   0  0  0  0  0  3  0  0  0  0  0  0
   16.3920    8.9050  -20.7990 C   0  0  0  0  0  3  0  0  0  0  0  0
   16.8610    8.7260  -22.2370 C   0  0  0  0  0  2  0  0  0  0  0  0
   16.7680   10.1190  -22.8860 C   0  0  0  0  0  3  0  0  0  0  0  0
   17.6660   10.2130  -24.1570 C   0  0  0  0  0  1  0  0  0  0  0  0
   15.3540   10.3590  -23.3390 C   0  0  0  0  0  3  0  0  0  0  0  0
   13.5060   11.9220  -23.5180 C   0  0  0  0  0  2  0  0  0  0  0  0
   13.2960   13.4510  -23.3860 C   0  0  0  0  0  2  0  0  0  0  0  0
   12.0430   13.9380  -24.1810 C   0  0  0  0  0  2  0  0  0  0  0  0
   10.7300   13.4430  -23.5300 C   0  0  0  0  0  1  0  0  0  0  0  0
   17.4270    3.2750  -22.1390 C   0  0  0  0  0  1  0  0  0  0  0  0
   18.7810    1.6470  -15.7540 C   0  0  0  0  0  2  0  0  0  0  0  0
   17.4380    3.8890  -19.7440 N   0  0  0  0  0  2  0  0  0  0  0  0
   16.7770    6.4900  -20.2040 N   0  0  0  0  0  2  0  0  0  0  0  0
   14.8430   11.5990  -23.1030 N   0  0  0  0  0  2  0  0  0  0  0  0
   18.8230    1.6210  -17.2370 N   0  0  0  0  0  2  0  0  0  0  0  0
   17.4790    9.4140  -20.0200 O   0  0  0  0  0  1  0  0  0  0  0  0
   14.7440    9.4470  -23.8810 O   0  0  0  0  0  1  0  0  0  0  0  0
   15.7520    5.5440  -22.0200 O   0  0  0  0  0  1  0  0  0  0  0  0
   19.3520    2.6580  -19.7500 O   0  0  0  0  0  1  0  0  0  0  0  0
   15.6530    1.3720  -18.1860 S   0  0  0  0  0  0  0  0  0  0  0  0
   15.0930    6.3740  -17.8100 S   0  0  0  0  0  0  0  0  0  0  0  0
  1  2  1  0
  1 24  1  0
  2  4  1  0
  3 13  1  0
  3 25  1  0
  3 32  1  0
  4 13  1  0
  4 33  1  0
  5  6  1  0
  5 23  1  0
  5 25  1  0
  6 26  1  0
  6 31  1  0
  7  8  1  0
  7 14  1  0
  7 26  1  0
  8 34  1  0
  9 10  1  0
  9 34  1  0
 10 11  1  0
 11 12  1  0
 12 33  1  0
 13 28  1  0
 14 15  1  0
 14 29  1  0
 15 16  1  0
 16 17  1  0
 16 18  1  0
 18 27  1  0
 18 30  1  0
 19 20  1  0
 19 27  1  0
 20 21  1  0
 21 22  1  0
 24 28  1  0
M  END
$$$$
