2fdp_C_FRP_386
     RDKit          3D

 41 43  0  0  0  0  0  0  0  0999 V2000
  -25.6940   -5.5790  -16.7470 C   0  0  0  0  0  2  0  0  0  0  0  0
  -30.2330   -2.3600  -20.8760 C   0  0  0  0  0  2  0  0  0  0  0  0
  -27.0300   -0.9100  -19.1080 C   0  0  0  0  0  2  0  0  0  0  0  0
  -29.0330   -5.3300  -14.9080 C   0  0  0  0  0  3  0  0  0  0  0  0
  -25.6460   -1.4200  -18.7630 C   0  0  0  0  0  1  0  0  0  0  0  0
  -30.9240   -3.7090  -20.8400 C   0  0  0  0  0  1  0  0  0  0  0  0
  -31.4240   -5.5580  -14.3650 C   0  0  0  0  0  3  0  0  0  0  0  0
  -31.8710   -7.0170  -14.2110 C   0  0  0  0  0  3  0  0  0  0  0  0
  -32.5300   -4.6950  -14.9840 C   0  0  0  0  0  2  0  0  0  0  0  0
  -30.8330   -7.8500  -13.4630 C   0  0  0  0  0  2  0  0  0  0  0  0
  -31.4900   -8.8030  -12.4690 C   0  0  0  0  0  3  0  0  0  0  0  0
  -26.0500   -5.1050  -18.0120 C   0  0  0  0  0  2  0  0  0  0  0  0
  -31.7840   -8.1190  -11.1610 C   0  0  0  0  0  3  0  0  0  0  0  0
  -30.5960  -10.0140  -12.2230 C   0  0  0  0  0  1  0  0  0  0  0  0
  -33.3320   -6.6330   -7.4260 C   0  0  0  0  0  2  0  0  0  0  0  0
  -34.5480   -7.1590   -6.9980 C   0  0  0  0  0  3  0  0  0  0  0  0
  -35.1980   -8.1280   -7.7580 C   0  0  0  0  0  2  0  0  0  0  0  0
  -34.6280   -8.5710   -8.9490 C   0  0  0  0  0  2  0  0  0  0  0  0
  -33.4140   -8.0450   -9.3890 C   0  0  0  0  0  3  0  0  0  0  0  0
  -32.7640   -7.0760   -8.6180 C   0  0  0  0  0  2  0  0  0  0  0  0
  -30.7940   -1.2980  -15.1980 C   0  0  0  0  0  2  0  0  0  0  0  0
  -31.1390   -0.9040  -16.4910 C   0  0  0  0  0  2  0  0  0  0  0  0
  -27.3660   -4.7070  -18.2370 C   0  0  0  0  0  3  0  0  0  0  0  0
  -31.9270   -1.7340  -17.2880 C   0  0  0  0  0  2  0  0  0  0  0  0
  -32.3720   -2.9590  -16.7910 C   0  0  0  0  0  2  0  0  0  0  0  0
  -32.0290   -3.3580  -15.4990 C   0  0  0  0  0  3  0  0  0  0  0  0
  -31.2430   -2.5200  -14.7010 C   0  0  0  0  0  2  0  0  0  0  0  0
  -28.3100   -4.8040  -17.2210 C   0  0  0  0  0  2  0  0  0  0  0  0
  -27.9640   -5.2740  -15.9630 C   0  0  0  0  0  3  0  0  0  0  0  0
  -26.6450   -5.6630  -15.7230 C   0  0  0  0  0  2  0  0  0  0  0  0
  -27.8470   -4.2010  -19.5600 C   0  0  0  0  0  3  0  0  0  0  0  0
  -28.1280   -1.8900  -18.6930 C   0  0  0  0  0  2  0  0  0  0  0  0
  -28.7110   -2.4550  -21.0260 C   0  0  0  0  0  2  0  0  0  0  0  0
  -35.0930   -6.7320   -5.8470 F   0  0  0  0  0  0  0  0  0  0  0  0
  -28.2060   -2.9190  -19.7350 N   0  0  0  0  0  0  0  0  0  0  0  0
  -30.2990   -5.5080  -15.3000 N   0  0  0  0  0  2  0  0  0  0  0  0
  -32.9210   -8.4990  -10.5740 N   0  0  0  0  0  2  0  0  0  0  0  0
  -32.1480   -7.6220  -15.5010 N   0  0  0  0  0  1  0  0  0  0  0  0
  -27.9390   -5.0200  -20.4580 O   0  0  0  0  0  1  0  0  0  0  0  0
  -28.7230   -5.2020  -13.7320 O   0  0  0  0  0  1  0  0  0  0  0  0
  -31.0160   -7.2890  -10.7000 O   0  0  0  0  0  1  0  0  0  0  0  0
  1 12  1  0
  1 30  1  0
  2  6  1  0
  2 33  1  0
  3  5  1  0
  3 32  1  0
  4 29  1  0
  4 36  1  0
  4 40  1  0
  7  8  1  0
  7  9  1  0
  7 36  1  0
  8 10  1  0
  8 38  1  0
  9 26  1  0
 10 11  1  0
 11 13  1  0
 11 14  1  0
 12 23  1  0
 13 37  1  0
 13 41  1  0
 15 16  1  0
 15 20  1  0
 16 17  1  0
 16 34  1  0
 17 18  1  0
 18 19  1  0
 19 20  1  0
 19 37  1  0
 21 22  1  0
 21 27  1  0
 22 24  1  0
 23 28  1  0
 23 31  1  0
 24 25  1  0
 25 26  1  0
 26 27  1  0
 28 29  1  0
 29 30  1  0
 31 35  1  0
 31 39  1  0
 32 35  1  0
 33 35  1  0
M  END
$$$$
