2g94_D_ZPQ_4001
     RDKit          3D

 45 45  0  0  0  0  0  0  0  0999 V2000
   29.6820   46.7600   36.2440 C   0  0  0  0  0  2  0  0  0  0  0  0
   28.8060   45.5740   35.9510 C   0  0  0  0  0  3  0  0  0  0  0  0
   29.9350   47.4570   35.1180 C   0  0  0  0  0  3  0  0  0  0  0  0
   28.2340   44.5040   36.7950 C   0  0  0  0  0  1  0  0  0  0  0  0
   29.3710   47.3710   32.6090 C   0  0  0  0  0  2  0  0  0  0  0  0
   31.2220   46.1080   31.8030 C   0  0  0  0  0  3  0  0  0  0  0  0
   30.7830   48.7050   35.1060 C   0  0  0  0  0  1  0  0  0  0  0  0
   33.4140   45.1050   30.9820 C   0  0  0  0  0  3  0  0  0  0  0  0
   33.4970   45.1140   29.4220 C   0  0  0  0  0  2  0  0  0  0  0  0
   30.8840   45.0630   28.4360 C   0  0  0  0  0  1  0  0  0  0  0  0
   34.7120   45.5270   31.6060 C   0  0  0  0  0  3  0  0  0  0  0  0
   39.5720   43.9550   33.3070 C   0  0  0  0  0  3  0  0  0  0  0  0
   35.8900   46.0740   33.7260 C   0  0  0  0  0  3  0  0  0  0  0  0
   36.6790   44.9490   34.4540 C   0  0  0  0  0  3  0  0  0  0  0  0
   35.4790   47.2070   34.7180 C   0  0  0  0  0  2  0  0  0  0  0  0
   34.8820   48.4530   33.9830 C   0  0  0  0  0  3  0  0  0  0  0  0
   35.9180   49.1560   33.0670 C   0  0  0  0  0  1  0  0  0  0  0  0
   34.3800   49.4540   35.0280 C   0  0  0  0  0  1  0  0  0  0  0  0
   37.0610   43.8130   33.4860 C   0  0  0  0  0  2  0  0  0  0  0  0
   38.3820   43.1840   33.9130 C   0  0  0  0  0  3  0  0  0  0  0  0
   38.4300   41.7260   33.4290 C   0  0  0  0  0  1  0  0  0  0  0  0
   41.9080   44.7910   33.7310 C   0  0  0  0  0  3  0  0  0  0  0  0
   42.8390   45.0760   34.9730 C   0  0  0  0  0  3  0  0  0  0  0  0
   44.0530   45.9470   34.6050 C   0  0  0  0  0  1  0  0  0  0  0  0
   43.3510   43.7830   35.6040 C   0  0  0  0  0  1  0  0  0  0  0  0
   42.5620   43.8890   32.6580 C   0  0  0  0  0  3  0  0  0  0  0  0
   43.9270   43.8290   30.5420 C   0  0  0  0  0  2  0  0  0  0  0  0
   43.3180   44.1390   29.1480 C   0  0  0  0  0  3  0  0  0  0  0  0
   41.8170   43.8500   29.1130 C   0  0  0  0  0  1  0  0  0  0  0  0
   43.5500   45.6040   28.7850 C   0  0  0  0  0  1  0  0  0  0  0  0
   28.5710   45.6870   34.3860 N   0  0  0  0  0  2  0  0  0  0  0  0
   29.2740   46.8250   33.9830 N   0  0  0  0  0  0  0  0  0  0  0  0
   32.5080   46.1790   31.3700 N   0  0  0  0  0  2  0  0  0  0  0  0
   34.6880   45.6240   32.9890 N   0  0  0  0  0  2  0  0  0  0  0  0
   40.6570   44.0920   34.1420 N   0  0  0  0  0  2  0  0  0  0  0  0
   43.2380   44.5520   31.6390 N   0  0  0  0  0  2  0  0  0  0  0  0
   30.6820   47.3280   32.0920 O   0  0  0  0  0  0  0  0  0  0  0  0
   30.6180   45.0440   31.9220 O   0  0  0  0  0  1  0  0  0  0  0  0
   35.7040   45.7900   30.9450 O   0  0  0  0  0  1  0  0  0  0  0  0
   32.8660   43.7740   27.2360 O   0  0  0  0  0  1  0  0  0  0  0  0
   32.1000   42.8830   29.4020 O   0  0  0  0  0  1  0  0  0  0  0  0
   35.8690   44.3880   35.4720 O   0  0  0  0  0  1  0  0  0  0  0  0
   39.5570   44.3970   32.1830 O   0  0  0  0  0  1  0  0  0  0  0  0
   42.4660   42.6790   32.7370 O   0  0  0  0  0  1  0  0  0  0  0  0
   32.3430   44.0560   28.5670 S   0  0  0  0  0  4  0  0  0  0  0  0
  1  2  1  0
  1  3  1  0
  2  4  1  0
  2 31  1  0
  3  7  1  0
  3 32  1  0
  5 32  1  0
  5 37  1  0
  6 33  1  0
  6 37  1  0
  6 38  1  0
  8  9  1  0
  8 11  1  0
  8 33  1  0
  9 45  1  0
 10 45  1  0
 11 34  1  0
 11 39  1  0
 12 20  1  0
 12 35  1  0
 12 43  1  0
 13 14  1  0
 13 15  1  0
 13 34  1  0
 14 19  1  0
 14 42  1  0
 15 16  1  0
 16 17  1  0
 16 18  1  0
 19 20  1  0
 20 21  1  0
 22 23  1  0
 22 26  1  0
 22 35  1  0
 23 24  1  0
 23 25  1  0
 26 36  1  0
 26 44  1  0
 27 28  1  0
 27 36  1  0
 28 29  1  0
 28 30  1  0
 31 32  1  0
 40 45  1  0
 41 45  1  0
M  END
$$$$
