2g94_B_ZPQ_2001
     RDKit          3D

 45 45  0  0  0  0  0  0  0  0999 V2000
   39.6260   -8.9910   79.4970 C   0  0  0  0  0  2  0  0  0  0  0  0
   40.5280   -7.8120   79.2600 C   0  0  0  0  0  3  0  0  0  0  0  0
   39.3420   -9.6010   78.3330 C   0  0  0  0  0  3  0  0  0  0  0  0
   41.1450   -6.8120   80.1580 C   0  0  0  0  0  1  0  0  0  0  0  0
   39.8660   -9.3720   75.8170 C   0  0  0  0  0  2  0  0  0  0  0  0
   38.0100   -8.0900   75.0840 C   0  0  0  0  0  3  0  0  0  0  0  0
   38.4630  -10.8200   78.2480 C   0  0  0  0  0  1  0  0  0  0  0  0
   35.8010   -7.0440   74.3990 C   0  0  0  0  0  3  0  0  0  0  0  0
   35.7070   -7.0020   72.8430 C   0  0  0  0  0  2  0  0  0  0  0  0
   38.2720   -6.9120   71.7490 C   0  0  0  0  0  1  0  0  0  0  0  0
   34.5020   -7.4680   75.0330 C   0  0  0  0  0  3  0  0  0  0  0  0
   29.7500   -5.8210   76.9850 C   0  0  0  0  0  3  0  0  0  0  0  0
   33.3550   -8.0540   77.1700 C   0  0  0  0  0  3  0  0  0  0  0  0
   32.6490   -6.9300   77.9820 C   0  0  0  0  0  3  0  0  0  0  0  0
   33.7500   -9.2780   78.0840 C   0  0  0  0  0  2  0  0  0  0  0  0
   34.3970  -10.4540   77.2650 C   0  0  0  0  0  3  0  0  0  0  0  0
   33.4000  -11.0960   76.2680 C   0  0  0  0  0  1  0  0  0  0  0  0
   34.9030  -11.5390   78.2300 C   0  0  0  0  0  1  0  0  0  0  0  0
   32.2700   -5.7250   77.0830 C   0  0  0  0  0  2  0  0  0  0  0  0
   30.9630   -5.0820   77.5700 C   0  0  0  0  0  3  0  0  0  0  0  0
   30.9000   -3.6190   77.1180 C   0  0  0  0  0  1  0  0  0  0  0  0
   27.4330   -6.6600   77.4140 C   0  0  0  0  0  3  0  0  0  0  0  0
   26.5430   -7.0540   78.6460 C   0  0  0  0  0  3  0  0  0  0  0  0
   25.3210   -7.8960   78.2470 C   0  0  0  0  0  1  0  0  0  0  0  0
   26.0600   -5.8160   79.3980 C   0  0  0  0  0  1  0  0  0  0  0  0
   26.7240   -5.7280   76.3920 C   0  0  0  0  0  3  0  0  0  0  0  0
   25.2750   -5.6580   74.3330 C   0  0  0  0  0  2  0  0  0  0  0  0
   25.8600   -5.8770   72.9070 C   0  0  0  0  0  3  0  0  0  0  0  0
   27.0780   -4.9880   72.6850 C   0  0  0  0  0  1  0  0  0  0  0  0
   26.2740   -7.3320   72.6980 C   0  0  0  0  0  1  0  0  0  0  0  0
   40.7350   -7.8270   77.6880 N   0  0  0  0  0  2  0  0  0  0  0  0
   40.0030   -8.9110   77.2260 N   0  0  0  0  0  0  0  0  0  0  0  0
   36.7040   -8.1320   74.7380 N   0  0  0  0  0  2  0  0  0  0  0  0
   34.5520   -7.6090   76.4110 N   0  0  0  0  0  2  0  0  0  0  0  0
   28.6890   -5.9620   77.8400 N   0  0  0  0  0  2  0  0  0  0  0  0
   26.0250   -6.3830   75.3880 N   0  0  0  0  0  2  0  0  0  0  0  0
   38.5360   -9.3180   75.3410 O   0  0  0  0  0  0  0  0  0  0  0  0
   38.6490   -7.0360   75.1560 O   0  0  0  0  0  1  0  0  0  0  0  0
   33.4850   -7.6870   74.3850 O   0  0  0  0  0  1  0  0  0  0  0  0
   36.2580   -5.5310   70.7400 O   0  0  0  0  0  1  0  0  0  0  0  0
   37.1180   -4.7840   72.9180 O   0  0  0  0  0  1  0  0  0  0  0  0
   33.5210   -6.4440   79.0070 O   0  0  0  0  0  1  0  0  0  0  0  0
   29.7320   -6.2460   75.8450 O   0  0  0  0  0  1  0  0  0  0  0  0
   26.7960   -4.5110   76.4940 O   0  0  0  0  0  1  0  0  0  0  0  0
   36.8320   -5.8990   72.0180 S   0  0  0  0  0  4  0  0  0  0  0  0
  1  2  1  0
  1  3  1  0
  2  4  1  0
  2 31  1  0
  3  7  1  0
  3 32  1  0
  5 32  1  0
  5 37  1  0
  6 33  1  0
  6 37  1  0
  6 38  1  0
  8  9  1  0
  8 11  1  0
  8 33  1  0
  9 45  1  0
 10 45  1  0
 11 34  1  0
 11 39  1  0
 12 20  1  0
 12 35  1  0
 12 43  1  0
 13 14  1  0
 13 15  1  0
 13 34  1  0
 14 19  1  0
 14 42  1  0
 15 16  1  0
 16 17  1  0
 16 18  1  0
 19 20  1  0
 20 21  1  0
 22 23  1  0
 22 26  1  0
 22 35  1  0
 23 24  1  0
 23 25  1  0
 26 36  1  0
 26 44  1  0
 27 28  1  0
 27 36  1  0
 28 29  1  0
 28 30  1  0
 31 32  1  0
 40 45  1  0
 41 45  1  0
M  END
$$$$
