2oah_A_QIN_902
     RDKit          3D

 34 36  0  0  0  0  0  0  0  0999 V2000
   33.8230   44.0170    4.5130 C   0  0  0  0  0  2  0  0  0  0  0  0
   29.7320   35.9020    1.0580 C   0  0  0  0  0  2  0  0  0  0  0  0
   28.3310   35.3670    0.7450 C   0  0  0  0  0  2  0  0  0  0  0  0
   28.4240   34.3050   -0.3370 C   0  0  0  0  0  1  0  0  0  0  0  0
   30.1940   43.6350    1.6580 C   0  0  0  0  0  3  0  0  0  0  0  0
   30.7200   42.3120    1.5090 C   0  0  0  0  0  2  0  0  0  0  0  0
   29.8290   41.3050    1.0130 C   0  0  0  0  0  3  0  0  0  0  0  0
   28.4860   41.5920    0.6540 C   0  0  0  0  0  2  0  0  0  0  0  0
   27.9940   42.9310    0.8210 C   0  0  0  0  0  3  0  0  0  0  0  0
   32.6220   44.7900    5.0440 C   0  0  0  0  0  3  0  0  0  0  0  0
   26.6280   46.0610    0.3270 C   0  0  0  0  0  1  0  0  0  0  0  0
   31.0430   37.1520    2.8740 C   0  0  0  0  0  3  0  0  0  0  0  0
   25.9500   42.5710   -0.5630 C   0  0  0  0  0  1  0  0  0  0  0  0
   32.5040   43.9550    3.8010 C   0  0  0  0  0  3  0  0  0  0  0  0
   30.2780   39.9190    0.8510 C   0  0  0  0  0  3  0  0  0  0  0  0
   31.7120   38.1890    1.9370 C   0  0  0  0  0  3  0  0  0  0  0  0
   32.0480   44.2910    6.3270 C   0  0  0  0  0  1  0  0  0  0  0  0
   32.4190   44.6250    2.4680 C   0  0  0  0  0  2  0  0  0  0  0  0
   33.1150   38.5520    2.4460 C   0  0  0  0  0  2  0  0  0  0  0  0
   34.0190   39.7650    0.2360 C   0  0  0  0  0  2  0  0  0  0  0  0
   33.7700   39.7160    1.6800 C   0  0  0  0  0  3  0  0  0  0  0  0
   34.1750   40.9760    2.2850 C   0  0  0  0  0  2  0  0  0  0  0  0
   34.5650   40.9450   -0.2380 C   0  0  0  0  0  2  0  0  0  0  0  0
   29.6730   36.7230    2.3350 C   0  0  0  0  0  2  0  0  0  0  0  0
   30.7930   37.8100    4.1610 N   0  0  0  0  0  1  0  0  0  0  0  0
   30.9880   44.7510    2.0730 N   0  0  0  0  0  2  0  0  0  0  0  0
   28.8720   43.8650    1.3240 N   0  0  0  0  0  2  0  0  0  0  0  0
   30.8860   39.4010    1.9370 N   0  0  0  0  0  2  0  0  0  0  0  0
   26.6740   43.2650    0.5240 N   0  0  0  0  0  0  0  0  0  0  0  0
   24.5700   44.4920    0.7610 O   0  0  0  0  0  1  0  0  0  0  0  0
   26.2800   44.6880    2.5140 O   0  0  0  0  0  1  0  0  0  0  0  0
   30.1170   39.2800   -0.1710 O   0  0  0  0  0  1  0  0  0  0  0  0
   25.9510   44.6060    1.1380 S   0  0  0  0  0  4  0  0  0  0  0  0
   34.8070   42.0190    1.0610 S   0  0  0  0  0  0  0  0  0  0  0  0
  1 10  1  0
  1 14  1  0
  2  3  1  0
  2 24  1  0
  3  4  1  0
  5  6  1  0
  5 26  1  0
  5 27  1  0
  6  7  1  0
  7  8  1  0
  7 15  1  0
  8  9  1  0
  9 27  1  0
  9 29  1  0
 10 14  1  0
 10 17  1  0
 11 33  1  0
 12 16  1  0
 12 24  1  0
 12 25  1  0
 13 29  1  0
 14 18  1  0
 15 28  1  0
 15 32  1  0
 16 19  1  0
 16 28  1  0
 18 26  1  0
 19 21  1  0
 20 21  1  0
 20 23  1  0
 21 22  1  0
 22 34  1  0
 23 34  1  0
 29 33  1  0
 30 33  1  0
 31 33  1  0
M  END
$$$$
