2of0_A_CMZ_390
     RDKit          3D

 19 20  0  0  0  0  0  0  0  0999 V2000
   73.3240   49.5770    7.1870 C   0  0  0  0  0  1  0  0  0  0  0  0
   66.8470   48.5150    7.6420 C   0  0  0  0  0  3  0  0  0  0  0  0
   66.5570   47.0630    8.0930 C   0  0  0  0  0  2  0  0  0  0  0  0
   65.0350   45.2150    8.1300 C   0  0  0  0  0  2  0  0  0  0  0  0
   63.5990   44.7450    7.8330 C   0  0  0  0  0  2  0  0  0  0  0  0
   62.7940   46.9410    8.1010 C   0  0  0  0  0  2  0  0  0  0  0  0
   64.1930   47.4370    8.4730 C   0  0  0  0  0  2  0  0  0  0  0  0
   71.0570   48.8910    7.9910 C   0  0  0  0  0  2  0  0  0  0  0  0
   72.3760   49.1990    8.2860 C   0  0  0  0  0  3  0  0  0  0  0  0
   72.8390   49.1580    9.5940 C   0  0  0  0  0  2  0  0  0  0  0  0
   71.9910   48.8000   10.6340 C   0  0  0  0  0  2  0  0  0  0  0  0
   70.6670   48.4900   10.3550 C   0  0  0  0  0  3  0  0  0  0  0  0
   69.7540   48.1050   11.4990 C   0  0  0  0  0  1  0  0  0  0  0  0
   70.1900   48.5430    9.0310 C   0  0  0  0  0  3  0  0  0  0  0  0
   68.3650   48.7240    7.5610 C   0  0  0  0  0  2  0  0  0  0  0  0
   65.1890   46.6310    7.7430 N   0  0  0  0  0  0  0  0  0  0  0  0
   66.2280   48.7860    6.3830 O   0  0  0  0  0  1  0  0  0  0  0  0
   62.6330   45.5740    8.5090 O   0  0  0  0  0  0  0  0  0  0  0  0
   68.8840   48.2150    8.7940 O   0  0  0  0  0  0  0  0  0  0  0  0
  1  9  1  0
  2  3  1  0
  2 15  1  0
  2 17  1  0
  3 16  1  0
  4  5  1  0
  4 16  1  0
  5 18  1  0
  6  7  1  0
  6 18  1  0
  7 16  1  0
  8  9  1  0
  8 14  1  0
  9 10  1  0
 10 11  1  0
 11 12  1  0
 12 13  1  0
 12 14  1  0
 14 19  1  0
 15 19  1  0
M  END
$$$$
