2ohk_A_1SQ_390
     RDKit          3D

 19 20  0  0  0  0  0  0  0  0999 V2000
   67.1560   46.6740    7.5840 C   0  0  0  0  0  3  0  0  0  0  0  0
   67.6570   47.9060    7.9780 C   0  0  0  0  0  3  0  0  0  0  0  0
   67.4210   49.0870    7.2440 C   0  0  0  0  0  3  0  0  0  0  0  0
   68.6510   50.3330    8.7350 C   0  0  0  0  0  3  0  0  0  0  0  0
   68.9550   49.2220    9.4970 C   0  0  0  0  0  3  0  0  0  0  0  0
   68.4550   47.9810    9.1330 C   0  0  0  0  0  3  0  0  0  0  0  0
   68.7150   46.8260    9.8620 C   0  0  0  0  0  3  0  0  0  0  0  0
   68.1960   45.6130    9.4540 C   0  0  0  0  0  3  0  0  0  0  0  0
   67.4250   45.5400    8.3140 C   0  0  0  0  0  3  0  0  0  0  0  0
   66.5490   46.6070    6.7000 H   0  0  0  0  0  0  0  0  0  0  0  0
   69.0350   51.3020    9.0220 H   0  0  0  0  0  0  0  0  0  0  0  0
   69.5600   49.3190   10.3870 H   0  0  0  0  0  0  0  0  0  0  0  0
   69.3230   46.8800   10.7530 H   0  0  0  0  0  0  0  0  0  0  0  0
   68.4050   44.7180   10.0210 H   0  0  0  0  0  0  0  0  0  0  0  0
   67.0230   44.5920    7.9980 H   0  0  0  0  0  0  0  0  0  0  0  0
   66.2100   49.8490    5.8250 H   0  0  0  0  0  0  0  0  0  0  0  0
   66.6020   48.2380    5.6030 H   0  0  0  0  0  0  0  0  0  0  0  0
   66.6510   49.0460    6.1240 N   0  0  0  0  0  0  0  0  0  0  0  0
   67.8830   50.2920    7.6400 N   0  0  0  0  0  2  0  0  0  0  0  0
  1  2  1  0
  1  9  1  0
  1 10  1  0
  2  3  1  0
  2  6  1  0
  3 18  1  0
  3 19  1  0
  4  5  1  0
  4 11  1  0
  4 19  1  0
  5  6  1  0
  5 12  1  0
  6  7  1  0
  7  8  1  0
  7 13  1  0
  8  9  1  0
  8 14  1  0
  9 15  1  0
 16 18  1  0
 17 18  1  0
M  END
$$$$
