2q11_B_XX4_502
     RDKit          3D

 31 34  0  0  0  0  0  0  0  0999 V2000
  222.2700  -45.1920    9.7210 C   0  0  0  0  0  1  0  0  0  0  0  0
  220.0890  -44.5330    8.6870 C   0  0  0  0  0  3  0  0  0  0  0  0
  219.4170  -45.7400    9.3240 C   0  0  0  0  0  2  0  0  0  0  0  0
  218.0940  -45.3350   10.0110 C   0  0  0  0  0  2  0  0  0  0  0  0
  219.0710  -43.6240   11.7070 C   0  0  0  0  0  2  0  0  0  0  0  0
  219.4630  -42.1400   11.6870 C   0  0  0  0  0  3  0  0  0  0  0  0
  220.4140  -41.6530   12.5790 C   0  0  0  0  0  2  0  0  0  0  0  0
  220.7710  -40.2490   12.5530 C   0  0  0  0  0  3  0  0  0  0  0  0
  221.7900  -39.7020   13.5070 C   0  0  0  0  0  3  0  0  0  0  0  0
  223.1440  -40.3400   13.6520 C   0  0  0  0  0  3  0  0  0  0  0  0
  223.7120  -41.1070   12.5840 C   0  0  0  0  0  2  0  0  0  0  0  0
  224.9790  -41.6960   12.7380 C   0  0  0  0  0  2  0  0  0  0  0  0
  225.6970  -41.5360   13.9420 C   0  0  0  0  0  2  0  0  0  0  0  0
  225.1500  -40.7830   15.0040 C   0  0  0  0  0  2  0  0  0  0  0  0
  223.8850  -40.1800   14.8660 C   0  0  0  0  0  2  0  0  0  0  0  0
  220.1360  -39.3700   11.6050 C   0  0  0  0  0  2  0  0  0  0  0  0
  219.1840  -39.8590   10.7160 C   0  0  0  0  0  2  0  0  0  0  0  0
  218.8270  -41.2420   10.7340 C   0  0  0  0  0  3  0  0  0  0  0  0
  217.3960  -42.9410    9.9670 C   0  0  0  0  0  3  0  0  0  0  0  0
  222.1320  -43.0940    8.2830 C   0  0  0  0  0  3  0  0  0  0  0  0
  222.0890  -43.1700    6.7430 C   0  0  0  0  0  2  0  0  0  0  0  0
  222.7810  -41.9270    6.1360 C   0  0  0  0  0  2  0  0  0  0  0  0
  222.0900  -40.6300    6.6320 C   0  0  0  0  0  2  0  0  0  0  0  0
  222.1490  -40.5480    8.1660 C   0  0  0  0  0  2  0  0  0  0  0  0
  221.4550  -41.7760    8.7820 C   0  0  0  0  0  2  0  0  0  0  0  0
  221.4620  -44.2820    8.8900 N   0  0  0  0  0  0  0  0  0  0  0  0
  218.1690  -43.9540   10.5410 N   0  0  0  0  0  0  0  0  0  0  0  0
  217.8870  -41.7150    9.8550 N   0  0  0  0  0  2  0  0  0  0  0  0
  216.1250  -43.2030    9.5350 N   0  0  0  0  0  1  0  0  0  0  0  0
  219.4140  -43.7830    7.9860 O   0  0  0  0  0  1  0  0  0  0  0  0
  221.5120  -38.7290   14.1770 O   0  0  0  0  0  1  0  0  0  0  0  0
  1 26  1  0
  2  3  1  0
  2 26  1  0
  2 30  1  0
  3  4  1  0
  4 27  1  0
  5  6  1  0
  5 27  1  0
  6  7  1  0
  6 18  1  0
  7  8  1  0
  8  9  1  0
  8 16  1  0
  9 10  1  0
  9 31  1  0
 10 11  1  0
 10 15  1  0
 11 12  1  0
 12 13  1  0
 13 14  1  0
 14 15  1  0
 16 17  1  0
 17 18  1  0
 18 28  1  0
 19 27  1  0
 19 28  1  0
 19 29  1  0
 20 21  1  0
 20 25  1  0
 20 26  1  0
 21 22  1  0
 22 23  1  0
 23 24  1  0
 24 25  1  0
M  END
$$$$
