2q11_C_XX4_503
     RDKit          3D

 31 34  0  0  0  0  0  0  0  0999 V2000
  159.6350  -37.9560   24.6180 C   0  0  0  0  0  1  0  0  0  0  0  0
  160.4380  -35.6480   25.0650 C   0  0  0  0  0  3  0  0  0  0  0  0
  159.0170  -35.1760   25.3000 C   0  0  0  0  0  2  0  0  0  0  0  0
  158.8930  -34.5000   26.6900 C   0  0  0  0  0  2  0  0  0  0  0  0
  159.7380  -36.3560   28.3070 C   0  0  0  0  0  2  0  0  0  0  0  0
  161.0570  -36.8900   28.8780 C   0  0  0  0  0  3  0  0  0  0  0  0
  161.1540  -38.2070   29.3230 C   0  0  0  0  0  2  0  0  0  0  0  0
  162.3980  -38.6920   29.8600 C   0  0  0  0  0  3  0  0  0  0  0  0
  162.5150  -40.0940   30.3530 C   0  0  0  0  0  3  0  0  0  0  0  0
  162.4450  -41.2800   29.4210 C   0  0  0  0  0  3  0  0  0  0  0  0
  162.3360  -41.1030   28.0000 C   0  0  0  0  0  2  0  0  0  0  0  0
  162.2670  -42.2280   27.1570 C   0  0  0  0  0  2  0  0  0  0  0  0
  162.3030  -43.5370   27.7060 C   0  0  0  0  0  2  0  0  0  0  0  0
  162.4100  -43.7210   29.0990 C   0  0  0  0  0  2  0  0  0  0  0  0
  162.4870  -42.6080   29.9570 C   0  0  0  0  0  2  0  0  0  0  0  0
  163.5240  -37.8200   29.9320 C   0  0  0  0  0  2  0  0  0  0  0  0
  163.4260  -36.5100   29.4910 C   0  0  0  0  0  2  0  0  0  0  0  0
  162.1990  -36.0190   28.9590 C   0  0  0  0  0  3  0  0  0  0  0  0
  161.0570  -34.2180   27.9150 C   0  0  0  0  0  3  0  0  0  0  0  0
  162.1170  -37.4260   24.5370 C   0  0  0  0  0  3  0  0  0  0  0  0
  162.7400  -36.7050   23.3050 C   0  0  0  0  0  2  0  0  0  0  0  0
  164.2180  -37.1110   23.1320 C   0  0  0  0  0  2  0  0  0  0  0  0
  165.0080  -36.7650   24.4130 C   0  0  0  0  0  2  0  0  0  0  0  0
  164.4330  -37.5600   25.6030 C   0  0  0  0  0  2  0  0  0  0  0  0
  162.9600  -37.1670   25.8300 C   0  0  0  0  0  2  0  0  0  0  0  0
  160.7170  -36.9740   24.7470 N   0  0  0  0  0  0  0  0  0  0  0  0
  159.9250  -35.0060   27.6380 N   0  0  0  0  0  0  0  0  0  0  0  0
  162.1170  -34.7180   28.5360 N   0  0  0  0  0  2  0  0  0  0  0  0
  161.0790  -32.9040   27.5310 N   0  0  0  0  0  1  0  0  0  0  0  0
  161.3440  -34.8370   25.1390 O   0  0  0  0  0  1  0  0  0  0  0  0
  162.6630  -40.2810   31.5480 O   0  0  0  0  0  1  0  0  0  0  0  0
  1 26  1  0
  2  3  1  0
  2 26  1  0
  2 30  1  0
  3  4  1  0
  4 27  1  0
  5  6  1  0
  5 27  1  0
  6  7  1  0
  6 18  1  0
  7  8  1  0
  8  9  1  0
  8 16  1  0
  9 10  1  0
  9 31  1  0
 10 11  1  0
 10 15  1  0
 11 12  1  0
 12 13  1  0
 13 14  1  0
 14 15  1  0
 16 17  1  0
 17 18  1  0
 18 28  1  0
 19 27  1  0
 19 28  1  0
 19 29  1  0
 20 21  1  0
 20 25  1  0
 20 26  1  0
 21 22  1  0
 22 23  1  0
 23 24  1  0
 24 25  1  0
M  END
$$$$
