2q15_A_3MR_386
     RDKit          3D

 37 41  0  0  0  0  0  0  0  0999 V2000
   72.9440   46.5280    7.9080 C   0  0  0  0  0  1  0  0  0  0  0  0
   64.3970   46.8590    8.4240 C   0  0  0  0  0  2  0  0  0  0  0  0
   63.0950   46.3500    9.0180 C   0  0  0  0  0  2  0  0  0  0  0  0
   62.8450   44.9020    8.5990 C   0  0  0  0  0  2  0  0  0  0  0  0
   64.0590   44.0910    9.0320 C   0  0  0  0  0  2  0  0  0  0  0  0
   65.3300   44.5750    8.3270 C   0  0  0  0  0  2  0  0  0  0  0  0
   66.4230   48.5630    9.5710 C   0  0  0  0  0  2  0  0  0  0  0  0
   67.3960   49.6950    9.8370 C   0  0  0  0  0  3  0  0  0  0  0  0
   67.9260   49.8730   11.1350 C   0  0  0  0  0  2  0  0  0  0  0  0
   68.8100   50.9270   11.3860 C   0  0  0  0  0  3  0  0  0  0  0  0
   70.5180   50.6750   12.9980 C   0  0  0  0  0  3  0  0  0  0  0  0
   71.0850   49.6390   12.2950 C   0  0  0  0  0  2  0  0  0  0  0  0
   72.2900   49.1130   12.6840 C   0  0  0  0  0  2  0  0  0  0  0  0
   72.9640   49.6180   13.7850 C   0  0  0  0  0  2  0  0  0  0  0  0
   72.3970   50.6470   14.4630 C   0  0  0  0  0  2  0  0  0  0  0  0
   71.1810   51.1870   14.1060 C   0  0  0  0  0  2  0  0  0  0  0  0
   69.0810   51.7950   10.3390 C   0  0  0  0  0  2  0  0  0  0  0  0
   68.5620   51.6150    9.0620 C   0  0  0  0  0  2  0  0  0  0  0  0
   67.7070   50.5580    8.7660 C   0  0  0  0  0  3  0  0  0  0  0  0
   70.5450   46.4070    8.2060 C   0  0  0  0  0  3  0  0  0  0  0  0
   66.8550   49.0520    7.1830 C   0  0  0  0  0  3  0  0  0  0  0  0
   71.5370   48.6230    7.6680 C   0  0  0  0  0  3  0  0  0  0  0  0
   72.8960   49.1760    7.3060 C   0  0  0  0  0  2  0  0  0  0  0  0
   72.7130   50.6730    7.3220 C   0  0  0  0  0  2  0  0  0  0  0  0
   71.8790   50.9280    6.0660 C   0  0  0  0  0  2  0  0  0  0  0  0
   70.4620   50.4540    6.3600 C   0  0  0  0  0  2  0  0  0  0  0  0
   70.5940   48.9600    6.5230 C   0  0  0  0  0  2  0  0  0  0  0  0
   69.1630   47.0130    8.2000 C   0  0  0  0  0  2  0  0  0  0  0  0
   68.0710   46.0970    8.7240 C   0  0  0  0  0  2  0  0  0  0  0  0
   66.7820   46.6280    8.0820 C   0  0  0  0  0  3  0  0  0  0  0  0
   65.5940   46.0060    8.8160 C   0  0  0  0  0  3  0  0  0  0  0  0
   66.6720   48.0860    8.2110 N   0  0  0  0  0  0  0  0  0  0  0  0
   71.6390   47.1820    7.9130 N   0  0  0  0  0  0  0  0  0  0  0  0
   67.2080   50.3360    7.4740 N   0  0  0  0  0  2  0  0  0  0  0  0
   66.6720   48.6580    5.8740 N   0  0  0  0  0  1  0  0  0  0  0  0
   69.3110   51.2060   12.6370 O   0  0  0  0  0  0  0  0  0  0  0  0
   70.6760   45.2200    8.4690 O   0  0  0  0  0  1  0  0  0  0  0  0
  1 33  1  0
  2  3  1  0
  2 31  1  0
  3  4  1  0
  4  5  1  0
  5  6  1  0
  6 31  1  0
  7  8  1  0
  7 32  1  0
  8  9  1  0
  8 19  1  0
  9 10  1  0
 10 17  1  0
 10 36  1  0
 11 12  1  0
 11 16  1  0
 11 36  1  0
 12 13  1  0
 13 14  1  0
 14 15  1  0
 15 16  1  0
 17 18  1  0
 18 19  1  0
 19 34  1  0
 20 28  1  0
 20 33  1  0
 20 37  1  0
 21 32  1  0
 21 34  1  0
 21 35  1  0
 22 23  1  0
 22 27  1  0
 22 33  1  0
 23 24  1  0
 24 25  1  0
 25 26  1  0
 26 27  1  0
 28 29  1  0
 29 30  1  0
 30 31  1  0
 30 32  1  0
M  END
$$$$
