2qmg_A_SC6_1
     RDKit          3D

 44 48  0  0  0  0  0  0  0  0999 V2000
   26.8950   15.4300   24.6060 C   0  0  0  0  0  2  0  0  0  0  0  0
   29.9380   13.5950   20.0480 C   0  0  0  0  0  2  0  0  0  0  0  0
   29.8790   13.0510   21.4890 C   0  0  0  0  0  3  0  0  0  0  0  0
   29.9180   11.4990   21.4840 C   0  0  0  0  0  2  0  0  0  0  0  0
   23.4140   13.0730   23.6040 C   0  0  0  0  0  3  0  0  0  0  0  0
   22.5560   10.7510   23.1270 C   0  0  0  0  0  3  0  0  0  0  0  0
   22.1050    9.9200   24.3510 C   0  0  0  0  0  3  0  0  0  0  0  0
   23.0700    9.8210   22.0060 C   0  0  0  0  0  2  0  0  0  0  0  0
   20.3570   10.7930   27.5050 C   0  0  0  0  0  2  0  0  0  0  0  0
   23.7320   10.5240   20.8460 C   0  0  0  0  0  3  0  0  0  0  0  0
   25.6140   15.8480   25.0530 C   0  0  0  0  0  3  0  0  0  0  0  0
   20.3960   11.6660   25.2810 C   0  0  0  0  0  2  0  0  0  0  0  0
   25.0800   10.2200   20.5160 C   0  0  0  0  0  2  0  0  0  0  0  0
   25.6970   10.8750   19.4300 C   0  0  0  0  0  3  0  0  0  0  0  0
   25.0260   11.8350   18.6460 C   0  0  0  0  0  2  0  0  0  0  0  0
   23.6860   12.1280   18.9880 C   0  0  0  0  0  3  0  0  0  0  0  0
   23.0280   11.4950   20.0680 C   0  0  0  0  0  2  0  0  0  0  0  0
   19.4600   11.4820   26.4880 C   0  0  0  0  0  3  0  0  0  0  0  0
   21.6090   10.7520   25.5660 C   0  0  0  0  0  3  0  0  0  0  0  0
   24.4680   15.0650   24.7210 C   0  0  0  0  0  2  0  0  0  0  0  0
   25.4770   17.1080   25.8680 C   0  0  0  0  0  1  0  0  0  0  0  0
   17.4160   10.8750   25.2760 C   0  0  0  0  0  3  0  0  0  0  0  0
   16.9480   12.1890   24.9230 C   0  0  0  0  0  2  0  0  0  0  0  0
   15.9540   12.3440   23.9290 C   0  0  0  0  0  2  0  0  0  0  0  0
   15.4200   11.2040   23.2780 C   0  0  0  0  0  2  0  0  0  0  0  0
   15.8810    9.9120   23.6250 C   0  0  0  0  0  2  0  0  0  0  0  0
   16.8730    9.7540   24.6170 C   0  0  0  0  0  2  0  0  0  0  0  0
   29.4570    9.5810   22.8470 C   0  0  0  0  0  1  0  0  0  0  0  0
   24.6020   13.8730   23.9460 C   0  0  0  0  0  3  0  0  0  0  0  0
   25.8780   13.4800   23.5200 C   0  0  0  0  0  2  0  0  0  0  0  0
   27.0340   14.2440   23.8330 C   0  0  0  0  0  3  0  0  0  0  0  0
   28.3630   13.7810   23.3640 C   0  0  0  0  0  3  0  0  0  0  0  0
   27.6480   13.6690   20.8640 C   0  0  0  0  0  2  0  0  0  0  0  0
   28.5730   14.2600   19.7950 C   0  0  0  0  0  2  0  0  0  0  0  0
   23.0270   13.0290   18.2670 F   0  0  0  0  0  0  0  0  0  0  0  0
   26.9600   10.5720   19.1390 F   0  0  0  0  0  0  0  0  0  0  0  0
   28.5850   13.5240   21.9940 N   0  0  0  0  0  0  0  0  0  0  0  0
   23.6280   11.7170   23.4740 N   0  0  0  0  0  2  0  0  0  0  0  0
   21.1720    9.8980   26.6800 N   0  0  0  0  0  2  0  0  0  0  0  0
   29.2740   13.6040   24.1700 O   0  0  0  0  0  1  0  0  0  0  0  0
   22.3000   13.5750   23.4400 O   0  0  0  0  0  1  0  0  0  0  0  0
   21.0380    9.0950   23.9460 O   0  0  0  0  0  1  0  0  0  0  0  0
   18.3940   10.5660   26.2380 O   0  0  0  0  0  0  0  0  0  0  0  0
   29.6270   10.9820   22.7780 O   0  0  0  0  0  0  0  0  0  0  0  0
  1 11  1  0
  1 31  1  0
  2  3  1  0
  2 34  1  0
  3  4  1  0
  3 37  1  0
  4 44  1  0
  5 29  1  0
  5 38  1  0
  5 41  1  0
  6  7  1  0
  6  8  1  0
  6 38  1  0
  7 19  1  0
  7 42  1  0
  8 10  1  0
  9 18  1  0
  9 39  1  0
 10 13  1  0
 10 17  1  0
 11 20  1  0
 11 21  1  0
 12 18  1  0
 12 19  1  0
 13 14  1  0
 14 15  1  0
 14 36  1  0
 15 16  1  0
 16 17  1  0
 16 35  1  0
 18 43  1  0
 19 39  1  0
 20 29  1  0
 22 23  1  0
 22 27  1  0
 22 43  1  0
 23 24  1  0
 24 25  1  0
 25 26  1  0
 26 27  1  0
 28 44  1  0
 29 30  1  0
 30 31  1  0
 31 32  1  0
 32 37  1  0
 32 40  1  0
 33 34  1  0
 33 37  1  0
M  END
$$$$
