2qp8_B_SC7_1
     RDKit          3D

 40 42  0  0  0  0  0  0  0  0999 V2000
   16.2080   29.5320   58.9770 C   0  0  0  0  0  2  0  0  0  0  0  0
   14.9190   30.2160   54.4080 C   0  0  0  0  0  2  0  0  0  0  0  0
   14.2350   28.9980   55.0890 C   0  0  0  0  0  1  0  0  0  0  0  0
   13.2350   33.3420   55.6630 C   0  0  0  0  0  2  0  0  0  0  0  0
   13.9260   34.3020   56.6390 C   0  0  0  0  0  1  0  0  0  0  0  0
   17.6410   27.8690   60.1890 C   0  0  0  0  0  1  0  0  0  0  0  0
   19.6830   31.9240   58.1100 C   0  0  0  0  0  3  0  0  0  0  0  0
   20.5660   34.1640   57.6400 C   0  0  0  0  0  3  0  0  0  0  0  0
   21.0690   34.9850   58.8440 C   0  0  0  0  0  3  0  0  0  0  0  0
   20.1010   35.0900   56.4880 C   0  0  0  0  0  2  0  0  0  0  0  0
   19.5120   34.2780   55.3480 C   0  0  0  0  0  3  0  0  0  0  0  0
   16.0660   30.7310   58.2390 C   0  0  0  0  0  3  0  0  0  0  0  0
   18.1840   34.5170   54.9030 C   0  0  0  0  0  2  0  0  0  0  0  0
   17.6440   33.7520   53.8320 C   0  0  0  0  0  3  0  0  0  0  0  0
   18.4260   32.7460   53.2080 C   0  0  0  0  0  2  0  0  0  0  0  0
   19.7490   32.5080   53.6570 C   0  0  0  0  0  3  0  0  0  0  0  0
   20.2910   33.2680   54.7180 C   0  0  0  0  0  2  0  0  0  0  0  0
   21.6760   34.1010   59.9240 C   0  0  0  0  0  3  0  0  0  0  0  0
   22.8760   33.2940   59.3790 C   0  0  0  0  0  2  0  0  0  0  0  0
   23.6800   32.5610   60.4530 C   0  0  0  0  0  3  0  0  0  0  0  0
   24.0570   33.5540   61.5540 C   0  0  0  0  0  2  0  0  0  0  0  0
   22.8090   34.2620   62.1120 C   0  0  0  0  0  2  0  0  0  0  0  0
   17.2210   31.5320   57.9610 C   0  0  0  0  0  2  0  0  0  0  0  0
   25.6930   31.3680   60.7380 C   0  0  0  0  0  2  0  0  0  0  0  0
   26.7390   30.5820   59.9100 C   0  0  0  0  0  1  0  0  0  0  0  0
   18.5020   31.1240   58.4140 C   0  0  0  0  0  3  0  0  0  0  0  0
   18.6440   29.9110   59.1440 C   0  0  0  0  0  2  0  0  0  0  0  0
   17.4920   29.1200   59.4260 C   0  0  0  0  0  3  0  0  0  0  0  0
   14.7410   31.1810   57.8040 C   0  0  0  0  0  3  0  0  0  0  0  0
   13.1750   31.9000   56.1480 C   0  0  0  0  0  2  0  0  0  0  0  0
   15.4830   31.2500   55.4160 C   0  0  0  0  0  2  0  0  0  0  0  0
   16.3950   33.9860   53.4200 F   0  0  0  0  0  0  0  0  0  0  0  0
   20.4940   31.5630   53.0830 F   0  0  0  0  0  0  0  0  0  0  0  0
   14.5110   31.4320   56.4930 N   0  0  0  0  0  0  0  0  0  0  0  0
   19.4550   33.2560   57.9870 N   0  0  0  0  0  2  0  0  0  0  0  0
   22.0920   34.9940   61.0310 N   0  0  0  0  0  2  0  0  0  0  0  0
   13.8530   31.3480   58.6300 O   0  0  0  0  0  1  0  0  0  0  0  0
   20.8010   31.4170   57.9710 O   0  0  0  0  0  1  0  0  0  0  0  0
   22.0950   35.9060   58.4190 O   0  0  0  0  0  1  0  0  0  0  0  0
   24.8420   32.0340   59.8170 O   0  0  0  0  0  0  0  0  0  0  0  0
  1 12  1  0
  1 28  1  0
  2  3  1  0
  2 31  1  0
  4  5  1  0
  4 30  1  0
  6 28  1  0
  7 26  1  0
  7 35  1  0
  7 38  1  0
  8  9  1  0
  8 10  1  0
  8 35  1  0
  9 18  1  0
  9 39  1  0
 10 11  1  0
 11 13  1  0
 11 17  1  0
 12 23  1  0
 12 29  1  0
 13 14  1  0
 14 15  1  0
 14 32  1  0
 15 16  1  0
 16 17  1  0
 16 33  1  0
 18 19  1  0
 18 36  1  0
 19 20  1  0
 20 21  1  0
 20 40  1  0
 21 22  1  0
 22 36  1  0
 23 26  1  0
 24 25  1  0
 24 40  1  0
 26 27  1  0
 27 28  1  0
 29 34  1  0
 29 37  1  0
 30 34  1  0
 31 34  1  0
M  END
$$$$
