2qu2_A_251_1
     RDKit          3D

 24 26  0  0  0  0  0  0  0  0999 V2000
   18.3370  -11.6980   18.9170 C   0  0  0  0  0  2  0  0  0  0  0  0
   14.8110  -10.4690   17.9760 C   0  0  0  0  0  3  0  0  0  0  0  0
   13.8240  -10.7770   18.8570 C   0  0  0  0  0  2  0  0  0  0  0  0
   12.6430   -9.9420   18.5990 C   0  0  0  0  0  2  0  0  0  0  0  0
   12.8860   -9.1040   17.5430 C   0  0  0  0  0  3  0  0  0  0  0  0
   11.9070   -8.1160   16.9500 C   0  0  0  0  0  3  0  0  0  0  0  0
   12.2110   -6.6950   16.7440 C   0  0  0  0  0  2  0  0  0  0  0  0
   11.2440   -5.8120   16.1510 C   0  0  0  0  0  2  0  0  0  0  0  0
   17.0480  -11.0490   19.0270 C   0  0  0  0  0  2  0  0  0  0  0  0
    9.9560   -6.3260   15.7640 C   0  0  0  0  0  2  0  0  0  0  0  0
    9.6490   -7.7050   15.9640 C   0  0  0  0  0  2  0  0  0  0  0  0
   10.5990   -8.5990   16.5500 C   0  0  0  0  0  2  0  0  0  0  0  0
   14.9770   -8.6830   15.9540 C   0  0  0  0  0  2  0  0  0  0  0  0
   15.5320   -7.3540   16.5190 C   0  0  0  0  0  3  0  0  0  0  0  0
   16.1190  -11.1040   17.9210 C   0  0  0  0  0  3  0  0  0  0  0  0
   16.7230   -5.3640   15.8330 C   0  0  0  0  0  3  0  0  0  0  0  0
   16.4850  -11.7870   16.7150 C   0  0  0  0  0  2  0  0  0  0  0  0
   17.7610  -12.4340   16.5950 C   0  0  0  0  0  2  0  0  0  0  0  0
   18.6960  -12.3870   17.6920 C   0  0  0  0  0  2  0  0  0  0  0  0
   14.2800   -9.3890   17.0880 N   0  0  0  0  0  0  0  0  0  0  0  0
   16.1700   -6.5730   15.5980 N   0  0  0  0  0  2  0  0  0  0  0  0
   16.6880   -4.7960   17.0640 N   0  0  0  0  0  1  0  0  0  0  0  0
   17.2880   -4.7770   14.7960 N   0  0  0  0  0  1  0  0  0  0  0  0
   15.3750   -7.0450   17.7310 O   0  0  0  0  0  1  0  0  0  0  0  0
  1  9  1  0
  1 19  1  0
  2  3  1  0
  2 15  1  0
  2 20  1  0
  3  4  1  0
  4  5  1  0
  5  6  1  0
  5 20  1  0
  6  7  1  0
  6 12  1  0
  7  8  1  0
  8 10  1  0
  9 15  1  0
 10 11  1  0
 11 12  1  0
 13 14  1  0
 13 20  1  0
 14 21  1  0
 14 24  1  0
 15 17  1  0
 16 21  1  0
 16 22  1  0
 16 23  1  0
 17 18  1  0
 18 19  1  0
M  END
$$$$
