2vij_A_C44_3001
     RDKit          3D

 42 46  0  0  0  0  0  0  0  0999 V2000
   17.3180   -5.8030   61.8080 C   0  0  0  0  0  3  0  0  0  0  0  0
   13.7210   -7.2320   61.8060 C   0  0  0  0  0  3  0  0  0  0  0  0
   13.0850   -6.3000   60.9180 C   0  0  0  0  0  2  0  0  0  0  0  0
   13.8190   -5.2020   60.3110 C   0  0  0  0  0  3  0  0  0  0  0  0
   15.2270   -5.0610   60.6240 C   0  0  0  0  0  2  0  0  0  0  0  0
   17.9980   -2.6230   63.5590 C   0  0  0  0  0  3  0  0  0  0  0  0
   18.2720   -2.3790   62.1560 C   0  0  0  0  0  2  0  0  0  0  0  0
   17.5760   -1.3410   61.4550 C   0  0  0  0  0  2  0  0  0  0  0  0
   16.6020   -0.5370   62.1450 C   0  0  0  0  0  2  0  0  0  0  0  0
   16.3270   -0.7700   63.5320 C   0  0  0  0  0  2  0  0  0  0  0  0
   17.0210   -1.8080   64.2310 C   0  0  0  0  0  2  0  0  0  0  0  0
   18.9410   -5.0370   63.6100 C   0  0  0  0  0  3  0  0  0  0  0  0
   13.4420   -9.5600   62.8120 C   0  0  0  0  0  2  0  0  0  0  0  0
   12.2960  -10.3820   63.4280 C   0  0  0  0  0  1  0  0  0  0  0  0
   19.6360   -6.1030   64.5000 C   0  0  0  0  0  3  0  0  0  0  0  0
   12.5350   -3.3800   56.8890 C   0  0  0  0  0  2  0  0  0  0  0  0
   13.1140   -2.0380   57.3300 C   0  0  0  0  0  2  0  0  0  0  0  0
   12.8640   -1.8110   58.8380 C   0  0  0  0  0  2  0  0  0  0  0  0
   13.5710   -2.8620   59.7380 C   0  0  0  0  0  2  0  0  0  0  0  0
   18.6840   -3.7030   64.3720 C   0  0  0  0  0  2  0  0  0  0  0  0
   20.4030   -9.8680   63.9340 C   0  0  0  0  0  3  0  0  0  0  0  0
   20.4730  -10.3470   65.4210 C   0  0  0  0  0  2  0  0  0  0  0  0
   20.3990  -11.8860   65.5220 C   0  0  0  0  0  2  0  0  0  0  0  0
   18.9860  -12.3770   65.0580 C   0  0  0  0  0  2  0  0  0  0  0  0
   18.4810  -11.7010   63.7610 C   0  0  0  0  0  3  0  0  0  0  0  0
   19.2460   -7.5540   64.2510 C   0  0  0  0  0  2  0  0  0  0  0  0
   19.1430  -10.5020   63.2010 C   0  0  0  0  0  3  0  0  0  0  0  0
   17.3460  -12.2560   63.0820 C   0  0  0  0  0  2  0  0  0  0  0  0
   16.8480  -11.6610   61.8710 C   0  0  0  0  0  2  0  0  0  0  0  0
   17.4770  -10.5070   61.3150 C   0  0  0  0  0  2  0  0  0  0  0  0
   18.6120   -9.9300   61.9700 C   0  0  0  0  0  2  0  0  0  0  0  0
   15.8840   -5.9890   61.5160 C   0  0  0  0  0  3  0  0  0  0  0  0
   15.1350   -7.0640   62.1000 C   0  0  0  0  0  2  0  0  0  0  0  0
   17.6400   -5.5800   63.1350 N   0  0  0  0  0  2  0  0  0  0  0  0
   20.4390   -8.3680   63.8730 N   0  0  0  0  0  2  0  0  0  0  0  0
   12.9500   -8.2530   62.3500 N   0  0  0  0  0  2  0  0  0  0  0  0
   13.1430   -4.3120   59.4550 N   0  0  0  0  0  0  0  0  0  0  0  0
   14.7890   -4.4900   57.5570 O   0  0  0  0  0  1  0  0  0  0  0  0
   12.8270   -5.8900   57.4480 O   0  0  0  0  0  1  0  0  0  0  0  0
   18.1840   -5.8350   60.9310 O   0  0  0  0  0  1  0  0  0  0  0  0
   21.0320   -5.9570   64.3260 O   0  0  0  0  0  1  0  0  0  0  0  0
   13.3980   -4.6270   57.8290 S   0  0  0  0  0  4  0  0  0  0  0  0
  1 32  1  0
  1 34  1  0
  1 40  1  0
  2  3  1  0
  2 33  1  0
  2 36  1  0
  3  4  1  0
  4  5  1  0
  4 37  1  0
  5 32  1  0
  6  7  1  0
  6 11  1  0
  6 20  1  0
  7  8  1  0
  8  9  1  0
  9 10  1  0
 10 11  1  0
 12 15  1  0
 12 20  1  0
 12 34  1  0
 13 14  1  0
 13 36  1  0
 15 26  1  0
 15 41  1  0
 16 17  1  0
 16 42  1  0
 17 18  1  0
 18 19  1  0
 19 37  1  0
 21 22  1  0
 21 27  1  0
 21 35  1  0
 22 23  1  0
 23 24  1  0
 24 25  1  0
 25 27  1  0
 25 28  1  0
 26 35  1  0
 27 31  1  0
 28 29  1  0
 29 30  1  0
 30 31  1  0
 32 33  1  0
 37 42  1  0
 38 42  1  0
 39 42  1  0
M  END
$$$$
