2viy_A_VG3_1448
     RDKit          3D

 40 42  0  0  0  0  0  0  0  0999 V2000
   30.5470    1.2450   34.3590 C   0  0  0  0  0  3  0  0  0  0  0  0
   30.6110   -2.2340   36.9210 C   0  0  0  0  0  2  0  0  0  0  0  0
   31.0290   -0.9730   37.4100 C   0  0  0  0  0  3  0  0  0  0  0  0
   31.0110    0.1680   36.5650 C   0  0  0  0  0  2  0  0  0  0  0  0
   29.2090    0.2240   31.1020 C   0  0  0  0  0  3  0  0  0  0  0  0
   28.4280   -0.9650   31.0890 C   0  0  0  0  0  2  0  0  0  0  0  0
   29.0350   -2.2200   30.8350 C   0  0  0  0  0  2  0  0  0  0  0  0
   30.4270   -2.2960   30.5930 C   0  0  0  0  0  2  0  0  0  0  0  0
   31.2140   -1.1170   30.6050 C   0  0  0  0  0  2  0  0  0  0  0  0
   30.6090    0.1360   30.8570 C   0  0  0  0  0  2  0  0  0  0  0  0
   28.9560    6.7450   34.8900 C   0  0  0  0  0  3  0  0  0  0  0  0
   28.9930    4.2820   34.1860 C   0  0  0  0  0  2  0  0  0  0  0  0
   29.5260    6.5250   36.3070 C   0  0  0  0  0  1  0  0  0  0  0  0
   29.2020    2.3450   32.5500 C   0  0  0  0  0  3  0  0  0  0  0  0
   30.0910    7.1540   33.9040 C   0  0  0  0  0  3  0  0  0  0  0  0
   28.3370    3.5240   33.0190 C   0  0  0  0  0  3  0  0  0  0  0  0
   30.4790    8.4020   31.8030 C   0  0  0  0  0  3  0  0  0  0  0  0
   30.8950    9.8650   32.0780 C   0  0  0  0  0  2  0  0  0  0  0  0
   31.7800   10.4030   30.8840 C   0  0  0  0  0  2  0  0  0  0  0  0
   31.0860   10.2440   29.5070 C   0  0  0  0  0  2  0  0  0  0  0  0
   30.5680    8.7980   29.2790 C   0  0  0  0  0  2  0  0  0  0  0  0
   29.7070    8.2950   30.4680 C   0  0  0  0  0  2  0  0  0  0  0  0
   28.5600    1.5640   31.3760 C   0  0  0  0  0  2  0  0  0  0  0  0
   32.9950   -1.8910   39.1700 C   0  0  0  0  0  2  0  0  0  0  0  0
   33.5530   -1.8840   40.6000 C   0  0  0  0  0  2  0  0  0  0  0  0
   34.7870   -2.7790   40.7760 C   0  0  0  0  0  2  0  0  0  0  0  0
   35.3160   -2.7550   42.2180 C   0  0  0  0  0  2  0  0  0  0  0  0
   30.5720    0.0470   35.2150 C   0  0  0  0  0  3  0  0  0  0  0  0
   36.5490   -3.6500   42.4020 C   0  0  0  0  0  1  0  0  0  0  0  0
   30.1530   -1.2290   34.7310 C   0  0  0  0  0  2  0  0  0  0  0  0
   30.1760   -2.3610   35.5830 C   0  0  0  0  0  2  0  0  0  0  0  0
   29.3600    1.4560   33.7170 N   0  0  0  0  0  2  0  0  0  0  0  0
   28.2730    5.5240   34.4250 N   0  0  0  0  0  2  0  0  0  0  0  0
   29.6350    7.9310   32.9040 N   0  0  0  0  0  2  0  0  0  0  0  0
   28.0980    4.4500   31.9870 O   0  0  0  0  0  1  0  0  0  0  0  0
   31.2560    6.7770   34.0420 O   0  0  0  0  0  1  0  0  0  0  0  0
   31.5040    2.0170   34.2240 O   0  0  0  0  0  1  0  0  0  0  0  0
   30.5300   -1.4170   39.9240 O   0  0  0  0  0  1  0  0  0  0  0  0
   31.9300    0.5250   39.3430 O   0  0  0  0  0  1  0  0  0  0  0  0
   31.5550   -0.8330   39.1000 S   0  0  0  0  0  4  0  0  0  0  0  0
  1 28  1  0
  1 32  1  0
  1 37  1  0
  2  3  1  0
  2 31  1  0
  3  4  1  0
  3 40  1  0
  4 28  1  0
  5  6  1  0
  5 10  1  0
  5 23  1  0
  6  7  1  0
  7  8  1  0
  8  9  1  0
  9 10  1  0
 11 13  1  0
 11 15  1  0
 11 33  1  0
 12 16  1  0
 12 33  1  0
 14 16  1  0
 14 23  1  0
 14 32  1  0
 15 34  1  0
 15 36  1  0
 16 35  1  0
 17 18  1  0
 17 22  1  0
 17 34  1  0
 18 19  1  0
 19 20  1  0
 20 21  1  0
 21 22  1  0
 24 25  1  0
 24 40  1  0
 25 26  1  0
 26 27  1  0
 27 29  1  0
 28 30  1  0
 30 31  1  0
 38 40  1  0
 39 40  1  0
M  END
$$$$
