2vj7_A_VG6_1448
     RDKit          3D

 41 44  0  0  0  0  0  0  0  0999 V2000
   29.8760   -2.1360   35.5170 C   0  0  0  0  0  3  0  0  0  0  0  0
   29.0870    2.6410   32.5160 C   0  0  0  0  0  3  0  0  0  0  0  0
   28.9080    2.1210   31.0630 C   0  0  0  0  0  2  0  0  0  0  0  0
   28.0860    3.7260   32.9980 C   0  0  0  0  0  3  0  0  0  0  0  0
   29.0980    0.6270   30.8720 C   0  0  0  0  0  3  0  0  0  0  0  0
   28.7480    4.6250   34.0360 C   0  0  0  0  0  2  0  0  0  0  0  0
   28.0220   -0.3000   30.8230 C   0  0  0  0  0  2  0  0  0  0  0  0
   28.2880   -1.6780   30.6280 C   0  0  0  0  0  2  0  0  0  0  0  0
   29.6190   -2.1400   30.4790 C   0  0  0  0  0  2  0  0  0  0  0  0
   29.8320   -0.9890   34.6750 C   0  0  0  0  0  2  0  0  0  0  0  0
   30.6920   -1.2270   30.5270 C   0  0  0  0  0  2  0  0  0  0  0  0
   30.4300    0.1430   30.7200 C   0  0  0  0  0  2  0  0  0  0  0  0
   30.3820    0.2510   35.1050 C   0  0  0  0  0  3  0  0  0  0  0  0
   28.8020   -3.6900   33.8400 C   0  0  0  0  0  2  0  0  0  0  0  0
   30.9830    0.3370   36.3820 C   0  0  0  0  0  2  0  0  0  0  0  0
   27.2780   -3.5580   33.8770 C   0  0  0  0  0  1  0  0  0  0  0  0
   31.0740   -1.0890   39.6640 C   0  0  0  0  0  3  0  0  0  0  0  0
   32.0530   -0.8140   40.8040 C   0  0  0  0  0  2  0  0  0  0  0  0
   31.0370   -0.7980   37.2360 C   0  0  0  0  0  3  0  0  0  0  0  0
   33.3720   -0.5650   40.0750 C   0  0  0  0  0  2  0  0  0  0  0  0
   32.9760   -0.1430   38.6670 C   0  0  0  0  0  2  0  0  0  0  0  0
   28.6360    6.8770   35.0540 C   0  0  0  0  0  2  0  0  0  0  0  0
   30.4780   -2.0280   36.7810 C   0  0  0  0  0  2  0  0  0  0  0  0
   29.7010    7.4600   34.1320 C   0  0  0  0  0  3  0  0  0  0  0  0
   31.0620    7.4600   34.5370 C   0  0  0  0  0  2  0  0  0  0  0  0
   32.0670    7.9920   33.6960 C   0  0  0  0  0  2  0  0  0  0  0  0
   31.7270    8.5330   32.4350 C   0  0  0  0  0  2  0  0  0  0  0  0
   30.3600    8.5560   31.9820 C   0  0  0  0  0  3  0  0  0  0  0  0
   29.3610    8.0040   32.8690 C   0  0  0  0  0  2  0  0  0  0  0  0
   30.3540    1.4370   34.2410 C   0  0  0  0  0  3  0  0  0  0  0  0
   29.9620    9.1520   30.5850 C   0  0  0  0  0  0  0  0  0  0  0  0
   28.9280    9.9810   30.7320 F   0  0  0  0  0  0  0  0  0  0  0  0
   29.6230    8.1470   29.7990 F   0  0  0  0  0  0  0  0  0  0  0  0
   30.9690    9.8210   30.0190 F   0  0  0  0  0  0  0  0  0  0  0  0
   27.8840    5.7190   34.4990 N   0  0  0  0  0  2  0  0  0  0  0  0
   29.3610   -3.3620   35.1550 N   0  0  0  0  0  2  0  0  0  0  0  0
   31.6340   -0.6980   38.4780 N   0  0  0  0  0  0  0  0  0  0  0  0
   29.2570    1.5530   33.4700 N   0  0  0  0  0  2  0  0  0  0  0  0
   27.6930    4.5680   31.9430 O   0  0  0  0  0  1  0  0  0  0  0  0
   29.9670   -1.5870   39.8270 O   0  0  0  0  0  1  0  0  0  0  0  0
   31.2730    2.2560   34.1810 O   0  0  0  0  0  1  0  0  0  0  0  0
  1 10  1  0
  1 23  1  0
  1 36  1  0
  2  3  1  0
  2  4  1  0
  2 38  1  0
  3  5  1  0
  4  6  1  0
  4 39  1  0
  5  7  1  0
  5 12  1  0
  6 35  1  0
  7  8  1  0
  8  9  1  0
  9 11  1  0
 10 13  1  0
 11 12  1  0
 13 15  1  0
 13 30  1  0
 14 16  1  0
 14 36  1  0
 15 19  1  0
 17 18  1  0
 17 37  1  0
 17 40  1  0
 18 20  1  0
 19 23  1  0
 19 37  1  0
 20 21  1  0
 21 37  1  0
 22 24  1  0
 22 35  1  0
 24 25  1  0
 24 29  1  0
 25 26  1  0
 26 27  1  0
 27 28  1  0
 28 29  1  0
 28 31  1  0
 30 38  1  0
 30 41  1  0
 31 32  1  0
 31 33  1  0
 31 34  1  0
M  END
$$$$
