2vkm_B_BSD_1386
     RDKit          3D

 47 50  0  0  0  0  0  0  0  0999 V2000
   41.9660   -8.4500   77.4290 C   0  0  0  0  0  2  0  0  0  0  0  0
   42.8590   -7.6110   78.1570 C   0  0  0  0  0  2  0  0  0  0  0  0
   42.3640   -6.7570   79.1900 C   0  0  0  0  0  2  0  0  0  0  0  0
   40.9870   -6.7270   79.5030 C   0  0  0  0  0  2  0  0  0  0  0  0
   40.0810   -7.5660   78.7770 C   0  0  0  0  0  2  0  0  0  0  0  0
   40.5740   -8.4400   77.7290 C   0  0  0  0  0  3  0  0  0  0  0  0
   39.6360   -9.3570   76.9260 C   0  0  0  0  0  3  0  0  0  0  0  0
   38.8800  -10.4000   77.7890 C   0  0  0  0  0  1  0  0  0  0  0  0
   39.5710   -4.8250   70.4210 C   0  0  0  0  0  1  0  0  0  0  0  0
   38.6300   -8.3620   74.8920 C   0  0  0  0  0  3  0  0  0  0  0  0
   33.8220   -6.8740   75.0820 C   0  0  0  0  0  3  0  0  0  0  0  0
   37.5240   -7.5290   74.3560 C   0  0  0  0  0  3  0  0  0  0  0  0
   37.7430   -6.6420   73.2490 C   0  0  0  0  0  2  0  0  0  0  0  0
   36.6810   -5.8260   72.7440 C   0  0  0  0  0  3  0  0  0  0  0  0
   35.4100   -5.9320   73.3750 C   0  0  0  0  0  2  0  0  0  0  0  0
   35.1770   -6.8030   74.4610 C   0  0  0  0  0  3  0  0  0  0  0  0
   36.2440   -7.5790   74.9220 C   0  0  0  0  0  2  0  0  0  0  0  0
   35.7960   -4.0140   71.2270 C   0  0  0  0  0  1  0  0  0  0  0  0
   32.1250   -4.9550   77.9950 C   0  0  0  0  0  2  0  0  0  0  0  0
   32.5770   -7.4380   77.2460 C   0  0  0  0  0  3  0  0  0  0  0  0
   32.9360   -8.7790   77.9790 C   0  0  0  0  0  2  0  0  0  0  0  0
   33.7650   -9.8730   77.2810 C   0  0  0  0  0  3  0  0  0  0  0  0
   33.4950  -10.2740   75.9420 C   0  0  0  0  0  2  0  0  0  0  0  0
   34.2740  -11.3000   75.3320 C   0  0  0  0  0  2  0  0  0  0  0  0
   35.3140  -11.9240   76.0610 C   0  0  0  0  0  2  0  0  0  0  0  0
   35.5890  -11.5310   77.3940 C   0  0  0  0  0  2  0  0  0  0  0  0
   34.8180  -10.5090   78.0000 C   0  0  0  0  0  2  0  0  0  0  0  0
   32.1330   -6.4420   78.3670 C   0  0  0  0  0  3  0  0  0  0  0  0
   30.2820   -3.5850   76.9040 C   0  0  0  0  0  2  0  0  0  0  0  0
   28.9780   -4.2210   76.4130 C   0  0  0  0  0  3  0  0  0  0  0  0
   28.1710   -4.9260   77.3250 C   0  0  0  0  0  2  0  0  0  0  0  0
   26.9760   -5.5580   76.9040 C   0  0  0  0  0  3  0  0  0  0  0  0
   26.5990   -5.4740   75.5440 C   0  0  0  0  0  2  0  0  0  0  0  0
   27.3990   -4.7660   74.6100 C   0  0  0  0  0  2  0  0  0  0  0  0
   28.5950   -4.1390   75.0500 C   0  0  0  0  0  2  0  0  0  0  0  0
   26.3080   -7.6620   78.0600 C   0  0  0  0  0  1  0  0  0  0  0  0
   38.6160   -8.5740   76.2230 N   0  0  0  0  0  2  0  0  0  0  0  0
   36.9050   -4.9380   71.5920 N   0  0  0  0  0  0  0  0  0  0  0  0
   33.7680   -6.9540   76.4450 N   0  0  0  0  0  2  0  0  0  0  0  0
   31.4200   -4.5630   76.7760 N   0  0  0  0  0  2  0  0  0  0  0  0
   39.5160   -8.8290   74.1690 O   0  0  0  0  0  1  0  0  0  0  0  0
   32.7920   -6.8800   74.3690 O   0  0  0  0  0  1  0  0  0  0  0  0
   38.2040   -2.6140   70.9740 O   0  0  0  0  0  1  0  0  0  0  0  0
   39.0770   -3.8790   72.9870 O   0  0  0  0  0  1  0  0  0  0  0  0
   30.8520   -6.7240   78.8650 O   0  0  0  0  0  1  0  0  0  0  0  0
   26.1300   -6.2650   77.7290 O   0  0  0  0  0  0  0  0  0  0  0  0
   38.4290   -4.0380   71.5650 S   0  0  0  0  0  4  0  0  0  0  0  0
  1  2  1  0
  1  6  1  0
  2  3  1  0
  3  4  1  0
  4  5  1  0
  5  6  1  0
  6  7  1  0
  7  8  1  0
  7 37  1  0
  9 47  1  0
 10 12  1  0
 10 37  1  0
 10 41  1  0
 11 16  1  0
 11 39  1  0
 11 42  1  0
 12 13  1  0
 12 17  1  0
 13 14  1  0
 14 15  1  0
 14 38  1  0
 15 16  1  0
 16 17  1  0
 18 38  1  0
 19 28  1  0
 19 40  1  0
 20 21  1  0
 20 28  1  0
 20 39  1  0
 21 22  1  0
 22 23  1  0
 22 27  1  0
 23 24  1  0
 24 25  1  0
 25 26  1  0
 26 27  1  0
 28 45  1  0
 29 30  1  0
 29 40  1  0
 30 31  1  0
 30 35  1  0
 31 32  1  0
 32 33  1  0
 32 46  1  0
 33 34  1  0
 34 35  1  0
 36 46  1  0
 38 47  1  0
 43 47  1  0
 44 47  1  0
M  END
$$$$
