2vnm_A_CM8_2000
     RDKit          3D

 43 46  0  0  0  0  0  0  0  0999 V2000
   29.0930   -3.7890   34.1330 C   0  0  0  0  0  2  0  0  0  0  0  0
   27.5940   -3.7460   34.1580 C   0  0  0  0  0  1  0  0  0  0  0  0
   33.8450   -2.2450   40.1660 C   0  0  0  0  0  2  0  0  0  0  0  0
   32.3550   -2.7130   40.3140 C   0  0  0  0  0  2  0  0  0  0  0  0
   33.2070   -0.1180   38.7200 C   0  0  0  0  0  2  0  0  0  0  0  0
   31.1040   -0.7520   37.5360 C   0  0  0  0  0  3  0  0  0  0  0  0
   30.9570    0.3880   36.6520 C   0  0  0  0  0  2  0  0  0  0  0  0
   30.3550    0.2100   35.3790 C   0  0  0  0  0  3  0  0  0  0  0  0
   29.9020   -1.0700   34.9410 C   0  0  0  0  0  2  0  0  0  0  0  0
   30.0920   -2.2120   35.8170 C   0  0  0  0  0  3  0  0  0  0  0  0
   30.7130   -2.0430   37.1350 C   0  0  0  0  0  2  0  0  0  0  0  0
   30.1590    1.4160   34.4960 C   0  0  0  0  0  3  0  0  0  0  0  0
   28.7090    2.4070   32.6750 C   0  0  0  0  0  3  0  0  0  0  0  0
   28.0620    1.6300   31.5080 C   0  0  0  0  0  2  0  0  0  0  0  0
   28.7830    0.2860   31.2290 C   0  0  0  0  0  3  0  0  0  0  0  0
   27.9540   -0.9060   31.0760 C   0  0  0  0  0  2  0  0  0  0  0  0
   28.6330   -2.1640   30.8210 C   0  0  0  0  0  2  0  0  0  0  0  0
   30.0670   -2.2180   30.7060 C   0  0  0  0  0  2  0  0  0  0  0  0
   30.8960   -1.0350   30.8630 C   0  0  0  0  0  2  0  0  0  0  0  0
   30.2370    0.2220   31.1100 C   0  0  0  0  0  2  0  0  0  0  0  0
   27.7450    3.5220   33.1810 C   0  0  0  0  0  3  0  0  0  0  0  0
   34.0590   -1.4330   38.8260 C   0  0  0  0  0  2  0  0  0  0  0  0
   28.5220    4.4310   34.1680 C   0  0  0  0  0  2  0  0  0  0  0  0
   28.4170    6.6630   35.1540 C   0  0  0  0  0  2  0  0  0  0  0  0
   29.4250    7.2870   34.1560 C   0  0  0  0  0  3  0  0  0  0  0  0
   30.8230    7.3540   34.5250 C   0  0  0  0  0  2  0  0  0  0  0  0
   31.7980    7.9330   33.6260 C   0  0  0  0  0  2  0  0  0  0  0  0
   31.3850    8.4430   32.3470 C   0  0  0  0  0  2  0  0  0  0  0  0
   29.9870    8.3600   31.9800 C   0  0  0  0  0  3  0  0  0  0  0  0
   29.0030    7.7940   32.8750 C   0  0  0  0  0  2  0  0  0  0  0  0
   29.5480    8.9010   30.6400 C   0  0  0  0  0  0  0  0  0  0  0  0
   28.6240    9.8490   30.8620 F   0  0  0  0  0  0  0  0  0  0  0  0
   29.0130    7.9130   29.8910 F   0  0  0  0  0  0  0  0  0  0  0  0
   30.5910    9.4780   29.9790 F   0  0  0  0  0  0  0  0  0  0  0  0
   29.6870   -3.5480   35.4140 N   0  0  0  0  0  2  0  0  0  0  0  0
   31.7580   -0.4480   38.7880 N   0  0  0  0  0  0  0  0  0  0  0  0
   28.9100    1.4440   33.7650 N   0  0  0  0  0  2  0  0  0  0  0  0
   27.6380    5.5780   34.5200 N   0  0  0  0  0  2  0  0  0  0  0  0
   29.9080   -1.6170   39.9730 O   0  0  0  0  0  1  0  0  0  0  0  0
   31.5210   -0.3330   41.2100 O   0  0  0  0  0  1  0  0  0  0  0  0
   31.0480    2.1890   34.2710 O   0  0  0  0  0  1  0  0  0  0  0  0
   27.4050    4.3810   32.0630 O   0  0  0  0  0  1  0  0  0  0  0  0
   31.2970   -1.2030   40.0730 S   0  0  0  0  0  4  0  0  0  0  0  0
  1  2  1  0
  1 35  1  0
  3  4  1  0
  3 22  1  0
  4 43  1  0
  5 22  1  0
  5 36  1  0
  6  7  1  0
  6 11  1  0
  6 36  1  0
  7  8  1  0
  8  9  1  0
  8 12  1  0
  9 10  1  0
 10 11  1  0
 10 35  1  0
 12 37  1  0
 12 41  1  0
 13 14  1  0
 13 21  1  0
 13 37  1  0
 14 15  1  0
 15 16  1  0
 15 20  1  0
 16 17  1  0
 17 18  1  0
 18 19  1  0
 19 20  1  0
 21 23  1  0
 21 42  1  0
 23 38  1  0
 24 25  1  0
 24 38  1  0
 25 26  1  0
 25 30  1  0
 26 27  1  0
 27 28  1  0
 28 29  1  0
 29 30  1  0
 29 31  1  0
 31 32  1  0
 31 33  1  0
 31 34  1  0
 36 43  1  0
 39 43  1  0
 40 43  1  0
M  END
$$$$
