2wf1_A_ZY1_2000
     RDKit          3D

 42 46  0  0  0  0  0  0  0  0999 V2000
   30.2000    1.5800   34.4310 C   0  0  0  0  0  3  0  0  0  0  0  0
   31.3320   -0.7360   37.3450 C   0  0  0  0  0  3  0  0  0  0  0  0
   30.8840   -1.9690   36.8330 C   0  0  0  0  0  3  0  0  0  0  0  0
   30.1960   -2.0230   35.5710 C   0  0  0  0  0  3  0  0  0  0  0  0
   29.9820   -0.8620   34.8320 C   0  0  0  0  0  2  0  0  0  0  0  0
   28.8270    0.5630   31.1840 C   0  0  0  0  0  3  0  0  0  0  0  0
   28.0200   -0.6100   31.1280 C   0  0  0  0  0  2  0  0  0  0  0  0
   28.6060   -1.8780   30.8780 C   0  0  0  0  0  2  0  0  0  0  0  0
   30.0030   -1.9880   30.6840 C   0  0  0  0  0  2  0  0  0  0  0  0
   30.8180   -0.8290   30.7380 C   0  0  0  0  0  2  0  0  0  0  0  0
   30.2350    0.4360   30.9840 C   0  0  0  0  0  2  0  0  0  0  0  0
   28.7430    2.6630   32.7250 C   0  0  0  0  0  3  0  0  0  0  0  0
   28.4110    6.9520   35.2380 C   0  0  0  0  0  2  0  0  0  0  0  0
   29.5090    7.5170   34.3630 C   0  0  0  0  0  3  0  0  0  0  0  0
   27.8100    3.7460   33.3100 C   0  0  0  0  0  3  0  0  0  0  0  0
   29.2170    7.9510   33.0450 C   0  0  0  0  0  2  0  0  0  0  0  0
   30.2410    8.4860   32.2010 C   0  0  0  0  0  3  0  0  0  0  0  0
   31.5600    8.5730   32.7100 C   0  0  0  0  0  2  0  0  0  0  0  0
   31.8590    8.1430   34.0220 C   0  0  0  0  0  2  0  0  0  0  0  0
   30.8380    7.6170   34.8460 C   0  0  0  0  0  2  0  0  0  0  0  0
   28.7920    9.4100   30.4820 C   0  0  0  0  0  1  0  0  0  0  0  0
   28.1980    1.9210   31.4600 C   0  0  0  0  0  2  0  0  0  0  0  0
   30.3580   -4.1260   36.4280 C   0  0  0  0  0  2  0  0  0  0  0  0
   29.8660   -3.4100   35.3340 C   0  0  0  0  0  3  0  0  0  0  0  0
   28.4060    4.6020   34.4350 C   0  0  0  0  0  2  0  0  0  0  0  0
   31.2920   -2.9890   39.9430 C   0  0  0  0  0  2  0  0  0  0  0  0
   31.6240   -3.6850   38.6040 C   0  0  0  0  0  2  0  0  0  0  0  0
   29.1370   -4.0020   34.1320 C   0  0  0  0  0  2  0  0  0  0  0  0
   27.6180   -3.8540   34.2880 C   0  0  0  0  0  1  0  0  0  0  0  0
   32.7410    0.5820   38.8210 C   0  0  0  0  0  1  0  0  0  0  0  0
   30.4290    0.4070   35.3070 C   0  0  0  0  0  3  0  0  0  0  0  0
   31.1050    0.4690   36.5710 C   0  0  0  0  0  2  0  0  0  0  0  0
   29.0470    1.5970   33.7040 N   0  0  0  0  0  2  0  0  0  0  0  0
   27.6660    5.8680   34.5720 N   0  0  0  0  0  2  0  0  0  0  0  0
   30.9610   -3.2910   37.3200 N   0  0  0  0  0  0  0  0  0  0  0  0
   32.0030   -0.6830   38.5670 N   0  0  0  0  0  0  0  0  0  0  0  0
   27.4460    4.6150   32.2510 O   0  0  0  0  0  1  0  0  0  0  0  0
   30.0710    8.9410   30.8830 O   0  0  0  0  0  0  0  0  0  0  0  0
   31.0350    2.4780   34.3070 O   0  0  0  0  0  1  0  0  0  0  0  0
   31.6780   -0.6380   41.0490 O   0  0  0  0  0  1  0  0  0  0  0  0
   29.7190   -0.9570   39.6070 O   0  0  0  0  0  1  0  0  0  0  0  0
   31.1010   -1.2210   39.8640 S   0  0  0  0  0  4  0  0  0  0  0  0
  1 31  1  0
  1 33  1  0
  1 39  1  0
  2  3  1  0
  2 32  1  0
  2 36  1  0
  3  4  1  0
  3 35  1  0
  4  5  1  0
  4 24  1  0
  5 31  1  0
  6  7  1  0
  6 11  1  0
  6 22  1  0
  7  8  1  0
  8  9  1  0
  9 10  1  0
 10 11  1  0
 12 15  1  0
 12 22  1  0
 12 33  1  0
 13 14  1  0
 13 34  1  0
 14 16  1  0
 14 20  1  0
 15 25  1  0
 15 37  1  0
 16 17  1  0
 17 18  1  0
 17 38  1  0
 18 19  1  0
 19 20  1  0
 21 38  1  0
 23 24  1  0
 23 35  1  0
 24 28  1  0
 25 34  1  0
 26 27  1  0
 26 42  1  0
 27 35  1  0
 28 29  1  0
 30 36  1  0
 31 32  1  0
 36 42  1  0
 40 42  1  0
 41 42  1  0
M  END
$$$$
