2wf2_A_ZY2_2000
     RDKit          3D

 43 47  0  0  0  0  0  0  0  0999 V2000
   30.5630    1.3650   34.7320 C   0  0  0  0  0  3  0  0  0  0  0  0
   31.9170   -0.7490   37.5690 C   0  0  0  0  0  3  0  0  0  0  0  0
   31.6390   -2.1050   37.1020 C   0  0  0  0  0  3  0  0  0  0  0  0
   30.9480   -2.2770   35.8440 C   0  0  0  0  0  3  0  0  0  0  0  0
   30.5940   -1.0970   35.0800 C   0  0  0  0  0  2  0  0  0  0  0  0
   29.1840    0.2640   31.4150 C   0  0  0  0  0  3  0  0  0  0  0  0
   28.4390   -0.9400   31.1480 C   0  0  0  0  0  2  0  0  0  0  0  0
   29.1260   -2.1360   30.7520 C   0  0  0  0  0  2  0  0  0  0  0  0
   30.5530   -2.1170   30.6310 C   0  0  0  0  0  2  0  0  0  0  0  0
   31.3100   -0.9230   30.8950 C   0  0  0  0  0  2  0  0  0  0  0  0
   30.6270    0.2720   31.2880 C   0  0  0  0  0  2  0  0  0  0  0  0
   31.8280   -4.6500   37.3220 C   0  0  0  0  0  2  0  0  0  0  0  0
   29.0290    2.2730   33.0400 C   0  0  0  0  0  3  0  0  0  0  0  0
   28.8850    6.5690   35.5530 C   0  0  0  0  0  2  0  0  0  0  0  0
   29.9720    7.1960   34.6780 C   0  0  0  0  0  3  0  0  0  0  0  0
   28.1710    3.4650   33.5180 C   0  0  0  0  0  3  0  0  0  0  0  0
   29.6470    7.6780   33.3630 C   0  0  0  0  0  2  0  0  0  0  0  0
   30.6850    8.2480   32.5360 C   0  0  0  0  0  3  0  0  0  0  0  0
   32.0190    8.3210   33.0460 C   0  0  0  0  0  2  0  0  0  0  0  0
   32.3460    7.8490   34.3520 C   0  0  0  0  0  2  0  0  0  0  0  0
   31.3130    7.2850   35.1630 C   0  0  0  0  0  2  0  0  0  0  0  0
   29.1850    8.7110   30.6530 C   0  0  0  0  0  1  0  0  0  0  0  0
   28.3780    1.4980   31.8540 C   0  0  0  0  0  2  0  0  0  0  0  0
   30.9220   -4.8100   36.1070 C   0  0  0  0  0  2  0  0  0  0  0  0
   28.9830    4.4320   34.3660 C   0  0  0  0  0  2  0  0  0  0  0  0
   32.4220   -2.8910   40.2980 C   0  0  0  0  0  2  0  0  0  0  0  0
   33.0030   -3.2640   38.9370 C   0  0  0  0  0  2  0  0  0  0  0  0
   29.9190   -3.7890   34.0730 C   0  0  0  0  0  2  0  0  0  0  0  0
   28.4050   -3.9410   34.3250 C   0  0  0  0  0  1  0  0  0  0  0  0
   33.5990    0.3120   39.0400 C   0  0  0  0  0  1  0  0  0  0  0  0
   30.8990    0.2050   35.5510 C   0  0  0  0  0  3  0  0  0  0  0  0
   31.5450    0.3730   36.7840 C   0  0  0  0  0  2  0  0  0  0  0  0
   30.6190   -3.5620   35.3500 N   0  0  0  0  0  0  0  0  0  0  0  0
   29.3620    1.3030   34.0910 N   0  0  0  0  0  2  0  0  0  0  0  0
   28.1070    5.5620   34.7890 N   0  0  0  0  0  2  0  0  0  0  0  0
   32.0810   -3.2740   37.7790 N   0  0  0  0  0  0  0  0  0  0  0  0
   32.3170   -0.4430   38.9020 N   0  0  0  0  0  0  0  0  0  0  0  0
   27.7070    4.2370   32.4050 O   0  0  0  0  0  1  0  0  0  0  0  0
   30.4950    8.7470   31.2400 O   0  0  0  0  0  0  0  0  0  0  0  0
   31.3780    2.2620   34.5060 O   0  0  0  0  0  1  0  0  0  0  0  0
   30.2330   -1.5320   39.8820 O   0  0  0  0  0  1  0  0  0  0  0  0
   31.9330   -0.5510   41.3970 O   0  0  0  0  0  1  0  0  0  0  0  0
   31.6130   -1.3220   40.2220 S   0  0  0  0  0  4  0  0  0  0  0  0
  1 31  1  0
  1 34  1  0
  1 40  1  0
  2  3  1  0
  2 32  1  0
  2 37  1  0
  3  4  1  0
  3 36  1  0
  4  5  1  0
  4 33  1  0
  5 31  1  0
  6  7  1  0
  6 11  1  0
  6 23  1  0
  7  8  1  0
  8  9  1  0
  9 10  1  0
 10 11  1  0
 12 24  1  0
 12 36  1  0
 13 16  1  0
 13 23  1  0
 13 34  1  0
 14 15  1  0
 14 35  1  0
 15 17  1  0
 15 21  1  0
 16 25  1  0
 16 38  1  0
 17 18  1  0
 18 19  1  0
 18 39  1  0
 19 20  1  0
 20 21  1  0
 22 39  1  0
 24 33  1  0
 25 35  1  0
 26 27  1  0
 26 43  1  0
 27 36  1  0
 28 29  1  0
 28 33  1  0
 30 37  1  0
 31 32  1  0
 37 43  1  0
 41 43  1  0
 42 43  1  0
M  END
$$$$
