2xfj_A_VG5_500
     RDKit          3D

 41 44  0  0  0  0  0  0  0  0999 V2000
   31.2150   -0.8160   37.2620 C   0  0  0  0  0  3  0  0  0  0  0  0
   28.9190    2.3760   32.6420 C   0  0  0  0  0  3  0  0  0  0  0  0
   28.2150    1.6280   31.5050 C   0  0  0  0  0  2  0  0  0  0  0  0
   28.1150    3.5750   33.1580 C   0  0  0  0  0  3  0  0  0  0  0  0
   28.9390    0.3470   31.1690 C   0  0  0  0  0  3  0  0  0  0  0  0
   28.9190    4.4620   34.1270 C   0  0  0  0  0  2  0  0  0  0  0  0
   28.8320    6.7690   35.0310 C   0  0  0  0  0  3  0  0  0  0  0  0
   29.8700    7.2150   34.0190 C   0  0  0  0  0  3  0  0  0  0  0  0
   31.1000    0.2670   36.4170 C   0  0  0  0  0  2  0  0  0  0  0  0
   30.1690    8.3710   31.8710 C   0  0  0  0  0  3  0  0  0  0  0  0
   29.4850    6.5020   36.3620 C   0  0  0  0  0  1  0  0  0  0  0  0
   29.3720    8.3130   30.5880 C   0  0  0  0  0  2  0  0  0  0  0  0
   30.1630    8.8230   29.3930 C   0  0  0  0  0  2  0  0  0  0  0  0
   30.6930   10.2300   29.6380 C   0  0  0  0  0  2  0  0  0  0  0  0
   31.4840   10.2850   30.9420 C   0  0  0  0  0  2  0  0  0  0  0  0
   30.6330    9.8010   32.1120 C   0  0  0  0  0  2  0  0  0  0  0  0
   30.4960    0.1200   35.1780 C   0  0  0  0  0  3  0  0  0  0  0  0
   29.9840   -1.1100   34.7910 C   0  0  0  0  0  2  0  0  0  0  0  0
   30.0820   -2.1960   35.6560 C   0  0  0  0  0  3  0  0  0  0  0  0
   30.3110    0.3300   30.9710 C   0  0  0  0  0  2  0  0  0  0  0  0
   30.9290   -0.8780   30.6840 C   0  0  0  0  0  2  0  0  0  0  0  0
   30.1950   -2.0490   30.5820 C   0  0  0  0  0  2  0  0  0  0  0  0
   28.8290   -2.0250   30.7740 C   0  0  0  0  0  2  0  0  0  0  0  0
   30.7110   -2.0430   36.8970 C   0  0  0  0  0  2  0  0  0  0  0  0
   28.2110   -0.8230   31.0740 C   0  0  0  0  0  2  0  0  0  0  0  0
   29.0850   -3.6860   34.0370 C   0  0  0  0  0  2  0  0  0  0  0  0
   27.5850   -3.7200   34.0980 C   0  0  0  0  0  1  0  0  0  0  0  0
   30.3960    1.3190   34.3130 C   0  0  0  0  0  3  0  0  0  0  0  0
   33.1370    0.0010   38.5710 C   0  0  0  0  0  2  0  0  0  0  0  0
   33.5930   -0.2080   40.0040 C   0  0  0  0  0  2  0  0  0  0  0  0
   32.4720   -0.9060   40.7350 C   0  0  0  0  0  2  0  0  0  0  0  0
   31.4020   -1.1390   39.7030 C   0  0  0  0  0  3  0  0  0  0  0  0
   29.6100   -3.4890   35.3840 N   0  0  0  0  0  2  0  0  0  0  0  0
   28.0690    5.5800   34.5670 N   0  0  0  0  0  2  0  0  0  0  0  0
   29.3280    7.9270   32.9840 N   0  0  0  0  0  2  0  0  0  0  0  0
   31.8580   -0.6610   38.5110 N   0  0  0  0  0  0  0  0  0  0  0  0
   29.1550    1.4690   33.7620 N   0  0  0  0  0  2  0  0  0  0  0  0
   27.7510    4.4470   32.0750 O   0  0  0  0  0  1  0  0  0  0  0  0
   31.0720    6.9750   34.1130 O   0  0  0  0  0  1  0  0  0  0  0  0
   30.3180   -1.6550   39.9250 O   0  0  0  0  0  1  0  0  0  0  0  0
   31.3360    2.1030   34.1630 O   0  0  0  0  0  1  0  0  0  0  0  0
  1  9  1  0
  1 24  1  0
  1 36  1  0
  2  3  1  0
  2  4  1  0
  2 37  1  0
  3  5  1  0
  4  6  1  0
  4 38  1  0
  5 20  1  0
  5 25  1  0
  6 34  1  0
  7  8  1  0
  7 11  1  0
  7 34  1  0
  8 35  1  0
  8 39  1  0
  9 17  1  0
 10 12  1  0
 10 16  1  0
 10 35  1  0
 12 13  1  0
 13 14  1  0
 14 15  1  0
 15 16  1  0
 17 18  1  0
 17 28  1  0
 18 19  1  0
 19 24  1  0
 19 33  1  0
 20 21  1  0
 21 22  1  0
 22 23  1  0
 23 25  1  0
 26 27  1  0
 26 33  1  0
 28 37  1  0
 28 41  1  0
 29 30  1  0
 29 36  1  0
 30 31  1  0
 31 32  1  0
 32 36  1  0
 32 40  1  0
M  END
$$$$
