2ze1_A_411_1
     RDKit          3D

 34 37  0  0  0  0  0  0  0  0999 V2000
   10.2770   -0.6500   12.1210 Br  0  0  0  0  0  0  0  0  0  0  0  0
   18.5940  -12.7900   17.4350 C   0  0  0  0  0  2  0  0  0  0  0  0
   13.0690   -9.4330   17.6780 C   0  0  0  0  0  3  0  0  0  0  0  0
   15.0440   -9.2570   16.1150 C   0  0  0  0  0  2  0  0  0  0  0  0
   15.6880   -7.9890   16.6060 C   0  0  0  0  0  3  0  0  0  0  0  0
   16.4280   -5.7510   15.7390 C   0  0  0  0  0  3  0  0  0  0  0  0
   12.2920   -8.3410   17.0640 C   0  0  0  0  0  3  0  0  0  0  0  0
   11.1580   -8.5590   16.2590 C   0  0  0  0  0  2  0  0  0  0  0  0
   10.4620   -7.4720   15.6880 C   0  0  0  0  0  2  0  0  0  0  0  0
   10.9050   -6.1540   15.9110 C   0  0  0  0  0  3  0  0  0  0  0  0
   12.0340   -5.9480   16.7170 C   0  0  0  0  0  2  0  0  0  0  0  0
   12.7200   -7.0220   17.2810 C   0  0  0  0  0  2  0  0  0  0  0  0
   18.3740  -12.0040   18.5730 C   0  0  0  0  0  2  0  0  0  0  0  0
    8.9580   -4.6400   15.3730 C   0  0  0  0  0  3  0  0  0  0  0  0
    8.6370   -3.2810   14.8720 C   0  0  0  0  0  3  0  0  0  0  0  0
    7.5310   -2.5690   15.3760 C   0  0  0  0  0  2  0  0  0  0  0  0
    7.2490   -1.2820   14.9020 C   0  0  0  0  0  2  0  0  0  0  0  0
    8.0650   -0.7050   13.9250 C   0  0  0  0  0  2  0  0  0  0  0  0
    9.1650   -1.4180   13.4370 C   0  0  0  0  0  3  0  0  0  0  0  0
    9.4610   -2.7010   13.8970 C   0  0  0  0  0  2  0  0  0  0  0  0
   17.1320  -11.3770   18.7670 C   0  0  0  0  0  2  0  0  0  0  0  0
   16.0990  -11.5420   17.8250 C   0  0  0  0  0  3  0  0  0  0  0  0
   16.3330  -12.3370   16.6850 C   0  0  0  0  0  2  0  0  0  0  0  0
   17.5750  -12.9590   16.4900 C   0  0  0  0  0  2  0  0  0  0  0  0
   14.8060  -10.8820   18.0270 C   0  0  0  0  0  3  0  0  0  0  0  0
   13.8310  -11.1330   18.9800 C   0  0  0  0  0  2  0  0  0  0  0  0
   12.7590  -10.2290   18.7730 C   0  0  0  0  0  2  0  0  0  0  0  0
   14.3250   -9.8470   17.2390 N   0  0  0  0  0  0  0  0  0  0  0  0
   15.8600   -7.0120   15.5670 N   0  0  0  0  0  2  0  0  0  0  0  0
   16.8700   -5.3650   16.9960 N   0  0  0  0  0  1  0  0  0  0  0  0
   16.5700   -4.8920   14.6690 N   0  0  0  0  0  1  0  0  0  0  0  0
   10.3130   -4.9520   15.4400 N   0  0  0  0  0  2  0  0  0  0  0  0
   16.0210   -7.7870   17.7680 O   0  0  0  0  0  1  0  0  0  0  0  0
    8.0090   -5.3460   15.6830 O   0  0  0  0  0  1  0  0  0  0  0  0
  1 19  1  0
  2 13  1  0
  2 24  1  0
  3  7  1  0
  3 27  1  0
  3 28  1  0
  4  5  1  0
  4 28  1  0
  5 29  1  0
  5 33  1  0
  6 29  1  0
  6 30  1  0
  6 31  1  0
  7  8  1  0
  7 12  1  0
  8  9  1  0
  9 10  1  0
 10 11  1  0
 10 32  1  0
 11 12  1  0
 13 21  1  0
 14 15  1  0
 14 32  1  0
 14 34  1  0
 15 16  1  0
 15 20  1  0
 16 17  1  0
 17 18  1  0
 18 19  1  0
 19 20  1  0
 21 22  1  0
 22 23  1  0
 22 25  1  0
 23 24  1  0
 25 26  1  0
 25 28  1  0
 26 27  1  0
M  END
$$$$
