2zjh_A_F1H_449
     RDKit          3D

 20 21  0  0  0  0  0  0  0  0999 V2000
   74.6100   33.0050   19.4650 C   0  0  0  0  0  3  0  0  0  0  0  0
   75.8370   35.1480   19.7520 C   0  0  0  0  0  2  0  0  0  0  0  0
   77.1000   33.1330   19.3120 C   0  0  0  0  0  2  0  0  0  0  0  0
   75.9160   32.2620   19.7270 C   0  0  0  0  0  2  0  0  0  0  0  0
   78.2480   35.1130   19.8750 C   0  0  0  0  0  2  0  0  0  0  0  0
   78.2270   36.4910   20.4980 C   0  0  0  0  0  3  0  0  0  0  0  0
   77.9770   36.6580   21.8620 C   0  0  0  0  0  2  0  0  0  0  0  0
   77.9600   37.9400   22.4150 C   0  0  0  0  0  2  0  0  0  0  0  0
   78.2010   39.0510   21.6030 C   0  0  0  0  0  2  0  0  0  0  0  0
   78.4530   38.8810   20.2400 C   0  0  0  0  0  2  0  0  0  0  0  0
   78.4700   37.6020   19.6870 C   0  0  0  0  0  2  0  0  0  0  0  0
   72.6960   31.5980   18.9810 C   0  0  0  0  0  3  0  0  0  0  0  0
   71.4690   30.9140   19.5390 C   0  0  0  0  0  2  0  0  0  0  0  0
   70.2200   31.3310   18.7690 C   0  0  0  0  0  2  0  0  0  0  0  0
   69.0110   31.3830   19.6900 C   0  0  0  0  0  2  0  0  0  0  0  0
   74.6310   34.3330   20.2150 C   0  0  0  0  0  2  0  0  0  0  0  0
   77.0220   34.3590   20.1050 N   0  0  0  0  0  0  0  0  0  0  0  0
   73.4750   32.2050   19.8710 N   0  0  0  0  0  2  0  0  0  0  0  0
   72.9350   31.5710   17.7820 O   0  0  0  0  0  1  0  0  0  0  0  0
   68.9430   33.0220   20.4510 S   0  0  0  0  0  1  0  0  0  0  0  0
  1  4  1  0
  1 16  1  0
  1 18  1  0
  2 16  1  0
  2 17  1  0
  3  4  1  0
  3 17  1  0
  5  6  1  0
  5 17  1  0
  6  7  1  0
  6 11  1  0
  7  8  1  0
  8  9  1  0
  9 10  1  0
 10 11  1  0
 12 13  1  0
 12 18  1  0
 12 19  1  0
 13 14  1  0
 14 15  1  0
 15 20  1  0
M  END
$$$$
