2zjj_A_F1J_449
     RDKit          3D

 20 21  0  0  0  0  0  0  0  0999 V2000
   18.4750   28.8680   28.9600 C   0  0  0  0  0  2  0  0  0  0  0  0
   19.3470   34.9990   28.9650 C   0  0  0  0  0  2  0  0  0  0  0  0
   20.4670   35.7690   28.6530 C   0  0  0  0  0  3  0  0  0  0  0  0
   21.7320   35.1820   28.5970 C   0  0  0  0  0  2  0  0  0  0  0  0
   21.8800   33.8180   28.8520 C   0  0  0  0  0  2  0  0  0  0  0  0
   18.8360   29.8520   25.3640 C   0  0  0  0  0  3  0  0  0  0  0  0
   18.6990   30.9860   23.2010 C   0  0  0  0  0  2  0  0  0  0  0  0
   20.1140   31.2480   22.6960 C   0  0  0  0  0  2  0  0  0  0  0  0
   19.7590   29.4890   29.5050 C   0  0  0  0  0  2  0  0  0  0  0  0
   20.0860   30.5960   27.3920 C   0  0  0  0  0  2  0  0  0  0  0  0
   18.7830   29.9940   26.8580 C   0  0  0  0  0  3  0  0  0  0  0  0
   20.9320   31.5640   29.4410 C   0  0  0  0  0  2  0  0  0  0  0  0
   20.7620   33.0440   29.1650 C   0  0  0  0  0  3  0  0  0  0  0  0
   19.4980   33.6380   29.2240 C   0  0  0  0  0  2  0  0  0  0  0  0
   20.3220   37.0830   28.4100 F   0  0  0  0  0  0  0  0  0  0  0  0
   18.6310   30.9610   24.6520 N   0  0  0  0  0  2  0  0  0  0  0  0
   19.8640   30.7780   28.8280 N   0  0  0  0  0  0  0  0  0  0  0  0
   18.5040   28.7250   27.5140 N   0  0  0  0  0  2  0  0  0  0  0  0
   19.0530   28.7630   24.8550 O   0  0  0  0  0  1  0  0  0  0  0  0
   20.4250   33.0320   22.6890 S   0  0  0  0  0  1  0  0  0  0  0  0
  1  9  1  0
  1 18  1  0
  2  3  1  0
  2 14  1  0
  3  4  1  0
  3 15  1  0
  4  5  1  0
  5 13  1  0
  6 11  1  0
  6 16  1  0
  6 19  1  0
  7  8  1  0
  7 16  1  0
  8 20  1  0
  9 17  1  0
 10 11  1  0
 10 17  1  0
 11 18  1  0
 12 13  1  0
 12 17  1  0
 13 14  1  0
M  END
$$$$
