2zjk_C_F1K_449
     RDKit          3D

 21 22  0  0  0  0  0  0  0  0999 V2000
   19.0430   63.9040   44.9980 C   0  0  0  0  0  2  0  0  0  0  0  0
   19.8730   64.7060   39.6530 C   0  0  0  0  0  2  0  0  0  0  0  0
   20.4860   66.0480   40.0440 C   0  0  0  0  0  2  0  0  0  0  0  0
   21.1290   66.7420   38.8470 C   0  0  0  0  0  2  0  0  0  0  0  0
   20.7020   60.6050   45.5440 C   0  0  0  0  0  2  0  0  0  0  0  0
   21.9810   60.0570   44.9400 C   0  0  0  0  0  3  0  0  0  0  0  0
   19.2710   62.5400   45.6630 C   0  0  0  0  0  2  0  0  0  0  0  0
   23.2160   60.5440   45.3650 C   0  0  0  0  0  2  0  0  0  0  0  0
   24.3920   60.0420   44.8100 C   0  0  0  0  0  2  0  0  0  0  0  0
   24.3350   59.0580   43.8260 C   0  0  0  0  0  3  0  0  0  0  0  0
   23.1040   58.5670   43.3960 C   0  0  0  0  0  2  0  0  0  0  0  0
   21.9290   59.0670   43.9550 C   0  0  0  0  0  2  0  0  0  0  0  0
   20.0100   61.7130   43.5330 C   0  0  0  0  0  2  0  0  0  0  0  0
   20.0130   63.1220   42.9540 C   0  0  0  0  0  3  0  0  0  0  0  0
   19.9990   63.0600   41.4490 C   0  0  0  0  0  3  0  0  0  0  0  0
   25.4710   58.5840   43.2900 F   0  0  0  0  0  0  0  0  0  0  0  0
   20.3630   61.8910   44.9370 N   0  0  0  0  0  0  0  0  0  0  0  0
   18.8970   63.8410   43.5470 N   0  0  0  0  0  2  0  0  0  0  0  0
   19.3200   64.0030   40.7980 N   0  0  0  0  0  2  0  0  0  0  0  0
   20.6050   62.1720   40.8660 O   0  0  0  0  0  1  0  0  0  0  0  0
   22.8560   66.2160   38.6870 S   0  0  0  0  0  1  0  0  0  0  0  0
  1  7  1  0
  1 18  1  0
  2  3  1  0
  2 19  1  0
  3  4  1  0
  4 21  1  0
  5  6  1  0
  5 17  1  0
  6  8  1  0
  6 12  1  0
  7 17  1  0
  8  9  1  0
  9 10  1  0
 10 11  1  0
 10 16  1  0
 11 12  1  0
 13 14  1  0
 13 17  1  0
 14 15  1  0
 14 18  1  0
 15 19  1  0
 15 20  1  0
M  END
$$$$
