2zjk_A_F1K_449
     RDKit          3D

 21 22  0  0  0  0  0  0  0  0999 V2000
   42.9560   72.1110   18.8290 C   0  0  0  0  0  2  0  0  0  0  0  0
   38.4280   72.5910   21.8380 C   0  0  0  0  0  2  0  0  0  0  0  0
   38.2350   71.1040   21.5600 C   0  0  0  0  0  2  0  0  0  0  0  0
   36.9090   70.6070   22.1270 C   0  0  0  0  0  2  0  0  0  0  0  0
   45.5780   72.9270   21.3540 C   0  0  0  0  0  2  0  0  0  0  0  0
   45.5850   72.5540   22.8210 C   0  0  0  0  0  3  0  0  0  0  0  0
   44.3040   72.6560   19.3180 C   0  0  0  0  0  2  0  0  0  0  0  0
   45.7880   71.2270   23.2020 C   0  0  0  0  0  2  0  0  0  0  0  0
   45.7850   70.8860   24.5550 C   0  0  0  0  0  2  0  0  0  0  0  0
   45.5730   71.8730   25.5230 C   0  0  0  0  0  3  0  0  0  0  0  0
   45.3660   73.1980   25.1440 C   0  0  0  0  0  2  0  0  0  0  0  0
   45.3730   73.5380   23.7920 C   0  0  0  0  0  2  0  0  0  0  0  0
   43.2210   73.3480   21.3460 C   0  0  0  0  0  2  0  0  0  0  0  0
   41.9340   72.6360   20.9480 C   0  0  0  0  0  3  0  0  0  0  0  0
   40.7740   73.2350   21.6990 C   0  0  0  0  0  3  0  0  0  0  0  0
   45.5640   71.5480   26.8280 F   0  0  0  0  0  0  0  0  0  0  0  0
   44.2930   72.5410   20.7760 N   0  0  0  0  0  0  0  0  0  0  0  0
   41.8010   72.7010   19.4970 N   0  0  0  0  0  2  0  0  0  0  0  0
   39.5740   73.1300   21.1310 N   0  0  0  0  0  2  0  0  0  0  0  0
   40.9430   73.7840   22.7800 O   0  0  0  0  0  1  0  0  0  0  0  0
   37.0600   70.3600   23.9150 S   0  0  0  0  0  1  0  0  0  0  0  0
  1  7  1  0
  1 18  1  0
  2  3  1  0
  2 19  1  0
  3  4  1  0
  4 21  1  0
  5  6  1  0
  5 17  1  0
  6  8  1  0
  6 12  1  0
  7 17  1  0
  8  9  1  0
  9 10  1  0
 10 11  1  0
 10 16  1  0
 11 12  1  0
 13 14  1  0
 13 17  1  0
 14 15  1  0
 14 18  1  0
 15 19  1  0
 15 20  1  0
M  END
$$$$
