2zjl_A_F1L_449
     RDKit          3D

 25 26  0  0  0  0  0  0  0  0999 V2000
   79.6800   36.3960   25.3740 Br  0  0  0  0  0  0  0  0  0  0  0  0
   75.1850   34.5390   20.9070 C   0  0  0  0  0  2  0  0  0  0  0  0
   71.9010   31.2960   19.6840 C   0  0  0  0  0  2  0  0  0  0  0  0
   70.7360   32.2540   19.4550 C   0  0  0  0  0  2  0  0  0  0  0  0
   70.4600   33.0690   20.7110 C   0  0  0  0  0  2  0  0  0  0  0  0
   78.7360   35.4220   20.1690 C   0  0  0  0  0  2  0  0  0  0  0  0
   79.0260   36.4380   21.2570 C   0  0  0  0  0  3  0  0  0  0  0  0
   76.3480   35.4580   20.5270 C   0  0  0  0  0  2  0  0  0  0  0  0
   79.1930   36.0180   22.5800 C   0  0  0  0  0  2  0  0  0  0  0  0
   79.4550   36.9510   23.5780 C   0  0  0  0  0  3  0  0  0  0  0  0
   79.5510   38.3010   23.2520 C   0  0  0  0  0  2  0  0  0  0  0  0
   79.3900   38.7240   21.9310 C   0  0  0  0  0  3  0  0  0  0  0  0
   79.1300   37.7900   20.9370 C   0  0  0  0  0  3  0  0  0  0  0  0
   80.0860   38.4680   18.7960 C   0  0  0  0  0  1  0  0  0  0  0  0
   79.7210   41.0790   22.5530 C   0  0  0  0  0  1  0  0  0  0  0  0
   77.4440   33.6370   19.3510 C   0  0  0  0  0  2  0  0  0  0  0  0
   76.3060   32.6830   19.7110 C   0  0  0  0  0  2  0  0  0  0  0  0
   75.0020   33.4620   19.8410 C   0  0  0  0  0  3  0  0  0  0  0  0
   73.1980   31.9240   19.2300 C   0  0  0  0  0  3  0  0  0  0  0  0
   77.5470   34.6180   20.4300 N   0  0  0  0  0  0  0  0  0  0  0  0
   73.8950   32.5800   20.1650 N   0  0  0  0  0  2  0  0  0  0  0  0
   78.9650   38.2150   19.6400 O   0  0  0  0  0  0  0  0  0  0  0  0
   79.4860   40.0530   21.5890 O   0  0  0  0  0  0  0  0  0  0  0  0
   73.5560   31.8100   18.0640 O   0  0  0  0  0  1  0  0  0  0  0  0
   68.9110   33.9840   20.5300 S   0  0  0  0  0  1  0  0  0  0  0  0
  1 10  1  0
  2  8  1  0
  2 18  1  0
  3  4  1  0
  3 19  1  0
  4  5  1  0
  5 25  1  0
  6  7  1  0
  6 20  1  0
  7  9  1  0
  7 13  1  0
  8 20  1  0
  9 10  1  0
 10 11  1  0
 11 12  1  0
 12 13  1  0
 12 23  1  0
 13 22  1  0
 14 22  1  0
 15 23  1  0
 16 17  1  0
 16 20  1  0
 17 18  1  0
 18 21  1  0
 19 21  1  0
 19 24  1  0
M  END
$$$$
