2zjm_A_F1M_395
     RDKit          3D

 35 37  0  0  0  0  0  0  0  0999 V2000
   33.7420   40.3650    2.7340 C   0  0  0  0  0  3  0  0  0  0  0  0
   33.8070   41.6450    2.1170 C   0  0  0  0  0  3  0  0  0  0  0  0
   34.0890   41.4230    4.8760 C   0  0  0  0  0  3  0  0  0  0  0  0
   30.9360   39.3530    2.4800 C   0  0  0  0  0  2  0  0  0  0  0  0
   31.8210   37.1950    1.7920 C   0  0  0  0  0  2  0  0  0  0  0  0
   22.9760   35.7650    0.0110 C   0  0  0  0  0  2  0  0  0  0  0  0
   23.8230   37.7390    1.1760 C   0  0  0  0  0  2  0  0  0  0  0  0
   29.7440   38.6810    3.1880 C   0  0  0  0  0  2  0  0  0  0  0  0
   30.6180   36.4540    2.4340 C   0  0  0  0  0  2  0  0  0  0  0  0
   33.9040   42.8250    2.9080 C   0  0  0  0  0  3  0  0  0  0  0  0
   29.3820   37.3770    2.4460 C   0  0  0  0  0  3  0  0  0  0  0  0
   26.4660   35.1330    3.3500 C   0  0  0  0  0  2  0  0  0  0  0  0
   24.6040   35.5140    1.8200 C   0  0  0  0  0  3  0  0  0  0  0  0
   23.7650   34.9410    0.8360 C   0  0  0  0  0  2  0  0  0  0  0  0
   24.6060   36.9240    1.9930 C   0  0  0  0  0  2  0  0  0  0  0  0
   35.2500   42.0800    0.3090 C   0  0  0  0  0  3  0  0  0  0  0  0
   34.3610   45.2060    2.8580 C   0  0  0  0  0  1  0  0  0  0  0  0
   36.4820   41.3580    0.9570 C   0  0  0  0  0  1  0  0  0  0  0  0
   33.4300   39.1020    1.9790 C   0  0  0  0  0  2  0  0  0  0  0  0
   35.3770   41.7790   -1.1620 C   0  0  0  0  0  1  0  0  0  0  0  0
   23.0320   37.1600    0.1910 C   0  0  0  0  0  3  0  0  0  0  0  0
   34.0170   42.6820    4.3060 C   0  0  0  0  0  2  0  0  0  0  0  0
   27.5550   35.7110    2.4780 C   0  0  0  0  0  3  0  0  0  0  0  0
   33.9650   40.2640    4.1190 C   0  0  0  0  0  2  0  0  0  0  0  0
   34.2020   41.2690    6.5410 Cl  0  0  0  0  0  0  0  0  0  0  0  0
   32.1450   38.4660    2.4740 N   0  0  0  0  0  0  0  0  0  0  0  0
   28.2190   36.7140    3.0870 N   0  0  0  0  0  2  0  0  0  0  0  0
   22.4540   37.7370   -2.4380 N   0  0  0  0  0  1  0  0  0  0  0  0
   20.7150   37.9680   -0.6210 O   0  0  0  0  0  1  0  0  0  0  0  0
   27.7730   35.2920    1.3540 O   0  0  0  0  0  1  0  0  0  0  0  0
   25.4090   34.6270    2.5490 O   0  0  0  0  0  0  0  0  0  0  0  0
   33.9050   44.0330    2.1990 O   0  0  0  0  0  0  0  0  0  0  0  0
   22.5730   39.6120   -0.6500 O   0  0  0  0  0  1  0  0  0  0  0  0
   33.9250   41.7050    0.7320 O   0  0  0  0  0  0  0  0  0  0  0  0
   22.1010   38.2620   -0.8150 S   0  0  0  0  0  4  0  0  0  0  0  0
  1  2  1  0
  1 19  1  0
  1 24  1  0
  2 10  1  0
  2 34  1  0
  3 22  1  0
  3 24  1  0
  3 25  1  0
  4  8  1  0
  4 26  1  0
  5  9  1  0
  5 26  1  0
  6 14  1  0
  6 21  1  0
  7 15  1  0
  7 21  1  0
  8 11  1  0
  9 11  1  0
 10 22  1  0
 10 32  1  0
 11 27  1  0
 12 23  1  0
 12 31  1  0
 13 14  1  0
 13 15  1  0
 13 31  1  0
 16 18  1  0
 16 20  1  0
 16 34  1  0
 17 32  1  0
 19 26  1  0
 21 35  1  0
 23 27  1  0
 23 30  1  0
 28 35  1  0
 29 35  1  0
 33 35  1  0
M  END
$$$$
