3bug_A_AEH_394
     RDKit          3D

 12 12  0  0  0  0  0  0  0  0999 V2000
  -21.0780   41.5560   90.6360 C   0  0  0  0  0  3  0  0  0  0  0  0
  -17.5030   40.2880   90.8800 C   0  0  0  0  0  2  0  0  0  0  0  0
  -16.6670   40.7980   92.0590 C   0  0  0  0  0  2  0  0  0  0  0  0
  -19.7080   41.4010   90.4010 C   0  0  0  0  0  2  0  0  0  0  0  0
  -21.6890   40.7550   91.6160 C   0  0  0  0  0  3  0  0  0  0  0  0
  -21.8880   42.5680   89.8670 C   0  0  0  0  0  2  0  0  0  0  0  0
  -18.9760   40.4590   91.1360 C   0  0  0  0  0  3  0  0  0  0  0  0
  -20.9740   39.8150   92.3530 C   0  0  0  0  0  2  0  0  0  0  0  0
  -21.9620   42.2620   88.3660 C   0  0  0  0  0  1  0  0  0  0  0  0
  -19.6090   39.6690   92.1070 C   0  0  0  0  0  2  0  0  0  0  0  0
  -15.4220   39.9580   92.2110 N   0  0  0  0  0  1  0  0  0  0  0  0
  -23.0310   40.8860   91.8710 O   0  0  0  0  0  1  0  0  0  0  0  0
  1  4  1  0
  1  5  1  0
  1  6  1  0
  2  3  1  0
  2  7  1  0
  3 11  1  0
  4  7  1  0
  5  8  1  0
  5 12  1  0
  6  9  1  0
  7 10  1  0
  8 10  1  0
M  END
$$$$
