3cic_A_316_501
     RDKit          3D

 45 48  0  0  0  0  0  0  0  0999 V2000
   27.0460   15.5560   24.3080 C   0  0  0  0  0  2  0  0  0  0  0  0
   28.3220   14.8730   19.7840 C   0  0  0  0  0  2  0  0  0  0  0  0
   28.8950   16.1170   20.4720 C   0  0  0  0  0  1  0  0  0  0  0  0
   30.0430   11.7030   21.0340 C   0  0  0  0  0  2  0  0  0  0  0  0
   29.2200   10.7970   21.9560 C   0  0  0  0  0  1  0  0  0  0  0  0
   25.6360   17.2730   25.4620 C   0  0  0  0  0  1  0  0  0  0  0  0
   23.5370   13.2360   23.3490 C   0  0  0  0  0  3  0  0  0  0  0  0
   22.5680   11.0220   23.0040 C   0  0  0  0  0  3  0  0  0  0  0  0
   22.0430   10.1760   24.2040 C   0  0  0  0  0  3  0  0  0  0  0  0
   22.9740   10.0800   21.8660 C   0  0  0  0  0  2  0  0  0  0  0  0
   23.6680   10.8250   20.7470 C   0  0  0  0  0  3  0  0  0  0  0  0
   27.1800   14.3390   23.5830 C   0  0  0  0  0  3  0  0  0  0  0  0
   22.9770   11.8450   20.0280 C   0  0  0  0  0  2  0  0  0  0  0  0
   23.6380   12.5390   18.9740 C   0  0  0  0  0  3  0  0  0  0  0  0
   24.9800   12.2180   18.6350 C   0  0  0  0  0  2  0  0  0  0  0  0
   25.6690   11.2050   19.3470 C   0  0  0  0  0  3  0  0  0  0  0  0
   25.0180   10.5040   20.4060 C   0  0  0  0  0  2  0  0  0  0  0  0
   21.4450   10.9970   25.3540 C   0  0  0  0  0  3  0  0  0  0  0  0
   20.1430   11.7170   24.9360 C   0  0  0  0  0  3  0  0  0  0  0  0
   17.8420   12.3040   25.4630 C   0  0  0  0  0  2  0  0  0  0  0  0
   19.0910   10.9390   27.1040 C   0  0  0  0  0  2  0  0  0  0  0  0
   20.4610   10.5800   27.5990 C   0  0  0  0  0  2  0  0  0  0  0  0
   26.0170   13.5650   23.2740 C   0  0  0  0  0  2  0  0  0  0  0  0
   16.7860   11.2830   25.1040 C   0  0  0  0  0  3  0  0  0  0  0  0
   16.9470   10.4670   23.9470 C   0  0  0  0  0  2  0  0  0  0  0  0
   15.9540    9.5030   23.6120 C   0  0  0  0  0  2  0  0  0  0  0  0
   14.8000    9.3560   24.4340 C   0  0  0  0  0  2  0  0  0  0  0  0
   14.6380   10.1730   25.5940 C   0  0  0  0  0  2  0  0  0  0  0  0
   15.6320   11.1370   25.9270 C   0  0  0  0  0  2  0  0  0  0  0  0
   24.7300   14.0160   23.6840 C   0  0  0  0  0  3  0  0  0  0  0  0
   24.6010   15.2420   24.4030 C   0  0  0  0  0  2  0  0  0  0  0  0
   25.7630   16.0100   24.7160 C   0  0  0  0  0  3  0  0  0  0  0  0
   28.5150   13.8710   23.1840 C   0  0  0  0  0  3  0  0  0  0  0  0
   30.0870   13.1760   21.4970 C   0  0  0  0  0  2  0  0  0  0  0  0
   27.7740   13.8650   20.7890 C   0  0  0  0  0  2  0  0  0  0  0  0
   23.0060   13.4930   18.2950 F   0  0  0  0  0  0  0  0  0  0  0  0
   26.9270   10.9150   19.0190 F   0  0  0  0  0  0  0  0  0  0  0  0
   28.7560   13.6490   21.8540 N   0  0  0  0  0  0  0  0  0  0  0  0
   23.7070   11.8880   23.3540 N   0  0  0  0  0  2  0  0  0  0  0  0
   21.2780   10.1180   26.4990 N   0  0  0  0  0  2  0  0  0  0  0  0
   19.1010   11.6420   25.8120 N   0  0  0  0  0  0  0  0  0  0  0  0
   29.3930   13.6740   24.0200 O   0  0  0  0  0  1  0  0  0  0  0  0
   22.4670   13.7610   23.0780 O   0  0  0  0  0  1  0  0  0  0  0  0
   21.0350    9.2690   23.7360 O   0  0  0  0  0  1  0  0  0  0  0  0
   20.0780   12.3170   23.8700 O   0  0  0  0  0  1  0  0  0  0  0  0
  1 12  1  0
  1 32  1  0
  2  3  1  0
  2 35  1  0
  4  5  1  0
  4 34  1  0
  6 32  1  0
  7 30  1  0
  7 39  1  0
  7 43  1  0
  8  9  1  0
  8 10  1  0
  8 39  1  0
  9 18  1  0
  9 44  1  0
 10 11  1  0
 11 13  1  0
 11 17  1  0
 12 23  1  0
 12 33  1  0
 13 14  1  0
 14 15  1  0
 14 36  1  0
 15 16  1  0
 16 17  1  0
 16 37  1  0
 18 19  1  0
 18 40  1  0
 19 41  1  0
 19 45  1  0
 20 24  1  0
 20 41  1  0
 21 22  1  0
 21 41  1  0
 22 40  1  0
 23 30  1  0
 24 25  1  0
 24 29  1  0
 25 26  1  0
 26 27  1  0
 27 28  1  0
 28 29  1  0
 30 31  1  0
 31 32  1  0
 33 38  1  0
 33 42  1  0
 34 38  1  0
 35 38  1  0
M  END
$$$$
