3cid_B_318_501
     RDKit          3D

 44 47  0  0  0  0  0  0  0  0999 V2000
   20.5270   34.0360   57.3030 C   0  0  0  0  0  3  0  0  0  0  0  0
   26.7570   32.9660   58.7420 C   0  0  0  0  0  2  0  0  0  0  0  0
   27.6340   33.4820   57.7410 C   0  0  0  0  0  2  0  0  0  0  0  0
   27.7750   34.8900   57.5720 C   0  0  0  0  0  2  0  0  0  0  0  0
   27.0400   35.7850   58.4040 C   0  0  0  0  0  2  0  0  0  0  0  0
   26.1630   35.2710   59.4040 C   0  0  0  0  0  2  0  0  0  0  0  0
   19.4990   34.1810   55.0160 C   0  0  0  0  0  3  0  0  0  0  0  0
   20.1990   33.1320   54.3610 C   0  0  0  0  0  2  0  0  0  0  0  0
   19.5730   32.4090   53.3100 C   0  0  0  0  0  3  0  0  0  0  0  0
   18.2480   32.7320   52.9090 C   0  0  0  0  0  2  0  0  0  0  0  0
   17.5450   33.7810   53.5630 C   0  0  0  0  0  3  0  0  0  0  0  0
   21.0040   34.8920   58.5300 C   0  0  0  0  0  3  0  0  0  0  0  0
   18.1670   34.5090   54.6180 C   0  0  0  0  0  2  0  0  0  0  0  0
   18.4000   31.0350   58.0070 C   0  0  0  0  0  3  0  0  0  0  0  0
   17.1220   31.4980   57.5900 C   0  0  0  0  0  2  0  0  0  0  0  0
   15.9550   30.7160   57.8540 C   0  0  0  0  0  3  0  0  0  0  0  0
   16.0820   29.4700   58.5460 C   0  0  0  0  0  2  0  0  0  0  0  0
   17.3650   29.0030   58.9630 C   0  0  0  0  0  3  0  0  0  0  0  0
   18.5260   29.7840   58.6930 C   0  0  0  0  0  2  0  0  0  0  0  0
   17.4930   27.7180   59.6730 C   0  0  0  0  0  1  0  0  0  0  0  0
   14.6230   31.1990   57.4350 C   0  0  0  0  0  3  0  0  0  0  0  0
   13.0980   31.9370   55.7300 C   0  0  0  0  0  2  0  0  0  0  0  0
   21.5520   34.0370   59.6970 C   0  0  0  0  0  3  0  0  0  0  0  0
   13.1560   33.3890   55.2320 C   0  0  0  0  0  2  0  0  0  0  0  0
   13.8870   34.3400   56.2100 C   0  0  0  0  0  1  0  0  0  0  0  0
   15.4230   31.2800   55.0550 C   0  0  0  0  0  2  0  0  0  0  0  0
   14.9210   30.2330   54.0500 C   0  0  0  0  0  2  0  0  0  0  0  0
   14.3180   28.9930   54.7600 C   0  0  0  0  0  1  0  0  0  0  0  0
   23.0380   34.5190   61.4730 C   0  0  0  0  0  2  0  0  0  0  0  0
   22.9130   33.4040   59.4220 C   0  0  0  0  0  3  0  0  0  0  0  0
   20.1680   34.9510   56.1310 C   0  0  0  0  0  2  0  0  0  0  0  0
   19.5900   31.8360   57.7130 C   0  0  0  0  0  3  0  0  0  0  0  0
   25.0940   33.3080   60.6350 C   0  0  0  0  0  2  0  0  0  0  0  0
   26.0190   33.8610   59.5740 C   0  0  0  0  0  3  0  0  0  0  0  0
   16.2980   34.0840   53.1830 F   0  0  0  0  0  0  0  0  0  0  0  0
   20.2300   31.4240   52.6960 F   0  0  0  0  0  0  0  0  0  0  0  0
   19.3750   33.1700   57.6170 N   0  0  0  0  0  2  0  0  0  0  0  0
   21.7280   34.9100   60.8860 N   0  0  0  0  0  2  0  0  0  0  0  0
   23.6960   33.7090   60.4560 N   0  0  0  0  0  0  0  0  0  0  0  0
   14.4200   31.4610   56.1030 N   0  0  0  0  0  0  0  0  0  0  0  0
   22.0320   35.7940   58.1010 O   0  0  0  0  0  1  0  0  0  0  0  0
   23.2090   32.7370   58.4310 O   0  0  0  0  0  1  0  0  0  0  0  0
   20.7030   31.3430   57.5540 O   0  0  0  0  0  1  0  0  0  0  0  0
   13.7230   31.3700   58.2480 O   0  0  0  0  0  1  0  0  0  0  0  0
  1 12  1  0
  1 31  1  0
  1 37  1  0
  2  3  1  0
  2 34  1  0
  3  4  1  0
  4  5  1  0
  5  6  1  0
  6 34  1  0
  7  8  1  0
  7 13  1  0
  7 31  1  0
  8  9  1  0
  9 10  1  0
  9 36  1  0
 10 11  1  0
 11 13  1  0
 11 35  1  0
 12 23  1  0
 12 41  1  0
 14 15  1  0
 14 19  1  0
 14 32  1  0
 15 16  1  0
 16 17  1  0
 16 21  1  0
 17 18  1  0
 18 19  1  0
 18 20  1  0
 21 40  1  0
 21 44  1  0
 22 24  1  0
 22 40  1  0
 23 30  1  0
 23 38  1  0
 24 25  1  0
 26 27  1  0
 26 40  1  0
 27 28  1  0
 29 38  1  0
 29 39  1  0
 30 39  1  0
 30 42  1  0
 32 37  1  0
 32 43  1  0
 33 34  1  0
 33 39  1  0
M  END
$$$$
