3ckp_C_012_503
     RDKit          3D

 40 43  0  0  0  0  0  0  0  0999 V2000
   66.4130  -37.7410    7.3010 C   0  0  0  0  0  3  0  0  0  0  0  0
   65.9810  -35.1670    4.8050 C   0  0  0  0  0  3  0  0  0  0  0  0
   67.5030  -35.2840    4.6970 C   0  0  0  0  0  2  0  0  0  0  0  0
   69.3060  -35.0020    2.9770 C   0  0  0  0  0  2  0  0  0  0  0  0
   69.1890  -36.2580    2.1540 C   0  0  0  0  0  3  0  0  0  0  0  0
   69.6610  -37.5040    2.6600 C   0  0  0  0  0  2  0  0  0  0  0  0
   69.5480  -38.6840    1.8900 C   0  0  0  0  0  2  0  0  0  0  0  0
   68.9610  -38.6280    0.6070 C   0  0  0  0  0  2  0  0  0  0  0  0
   68.4810  -37.3900    0.0790 C   0  0  0  0  0  3  0  0  0  0  0  0
   68.6000  -36.2120    0.8630 C   0  0  0  0  0  2  0  0  0  0  0  0
   66.6910  -38.1050   -1.4540 C   0  0  0  0  0  1  0  0  0  0  0  0
   68.5100  -36.5420   -2.2510 C   0  0  0  0  0  1  0  0  0  0  0  0
   66.8620  -37.6500    8.7540 C   0  0  0  0  0  3  0  0  0  0  0  0
   66.8410  -36.3400   10.5300 C   0  0  0  0  0  3  0  0  0  0  0  0
   65.8030  -38.1330    9.7440 C   0  0  0  0  0  2  0  0  0  0  0  0
   65.2330  -37.3720   12.1130 C   0  0  0  0  0  2  0  0  0  0  0  0
   63.8170  -36.9270   11.7880 C   0  0  0  0  0  3  0  0  0  0  0  0
   63.5450  -35.6140   11.3070 C   0  0  0  0  0  2  0  0  0  0  0  0
   62.2210  -35.2010   11.0100 C   0  0  0  0  0  3  0  0  0  0  0  0
   61.1480  -36.1170   11.1970 C   0  0  0  0  0  2  0  0  0  0  0  0
   61.4040  -37.4200   11.6750 C   0  0  0  0  0  2  0  0  0  0  0  0
   62.7310  -37.8220   11.9690 C   0  0  0  0  0  2  0  0  0  0  0  0
   61.7890  -33.8200    9.1560 C   0  0  0  0  0  1  0  0  0  0  0  0
   65.3450  -36.4020    5.4760 C   0  0  0  0  0  3  0  0  0  0  0  0
   63.8010  -36.2760    5.5790 C   0  0  0  0  0  2  0  0  0  0  0  0
   62.6140  -37.3620    7.5700 C   0  0  0  0  0  2  0  0  0  0  0  0
   63.1630  -38.7460    5.6270 C   0  0  0  0  0  2  0  0  0  0  0  0
   62.0460  -38.4880    8.2140 C   0  0  0  0  0  2  0  0  0  0  0  0
   62.5970  -39.8680    6.2730 C   0  0  0  0  0  2  0  0  0  0  0  0
   63.1800  -37.4790    6.2660 C   0  0  0  0  0  3  0  0  0  0  0  0
   62.0370  -39.7420    7.5690 C   0  0  0  0  0  2  0  0  0  0  0  0
   65.8760  -36.5740    6.8340 N   0  0  0  0  0  2  0  0  0  0  0  0
   68.0070  -34.5500    3.5180 N   0  0  0  0  0  2  0  0  0  0  0  0
   67.9090  -37.3450   -1.1760 N   0  0  0  0  0  0  0  0  0  0  0  0
   67.1820  -36.2840    9.1640 N   0  0  0  0  0  2  0  0  0  0  0  0
   66.2480  -37.5360   11.0070 N   0  0  0  0  0  0  0  0  0  0  0  0
   66.5290  -38.7920    6.6640 O   0  0  0  0  0  1  0  0  0  0  0  0
   67.0660  -35.3820   11.2570 O   0  0  0  0  0  1  0  0  0  0  0  0
   62.0320  -33.8940   10.5470 O   0  0  0  0  0  0  0  0  0  0  0  0
   65.4420  -35.0500    3.5090 O   0  0  0  0  0  1  0  0  0  0  0  0
  1 13  1  0
  1 32  1  0
  1 37  1  0
  2  3  1  0
  2 24  1  0
  2 40  1  0
  3 33  1  0
  4  5  1  0
  4 33  1  0
  5  6  1  0
  5 10  1  0
  6  7  1  0
  7  8  1  0
  8  9  1  0
  9 10  1  0
  9 34  1  0
 11 34  1  0
 12 34  1  0
 13 15  1  0
 13 35  1  0
 14 35  1  0
 14 36  1  0
 14 38  1  0
 15 36  1  0
 16 17  1  0
 16 36  1  0
 17 18  1  0
 17 22  1  0
 18 19  1  0
 19 20  1  0
 19 39  1  0
 20 21  1  0
 21 22  1  0
 23 39  1  0
 24 25  1  0
 24 32  1  0
 25 30  1  0
 26 28  1  0
 26 30  1  0
 27 29  1  0
 27 30  1  0
 28 31  1  0
 29 31  1  0
M  END
$$$$
