3ckr_C_009_503
     RDKit          3D

 45 49  0  0  0  0  0  0  0  0999 V2000
   66.7550  -38.4220    7.2260 C   0  0  0  0  0  3  0  0  0  0  0  0
   66.3470  -35.8170    4.7930 C   0  0  0  0  0  3  0  0  0  0  0  0
   67.8590  -36.0390    4.6350 C   0  0  0  0  0  2  0  0  0  0  0  0
   69.5610  -36.1800    2.7970 C   0  0  0  0  0  2  0  0  0  0  0  0
   69.6350  -37.0580    1.5660 C   0  0  0  0  0  3  0  0  0  0  0  0
   70.5660  -38.1290    1.4890 C   0  0  0  0  0  2  0  0  0  0  0  0
   70.6210  -38.9460    0.3360 C   0  0  0  0  0  2  0  0  0  0  0  0
   69.7490  -38.7040   -0.7570 C   0  0  0  0  0  2  0  0  0  0  0  0
   68.8090  -37.6360   -0.7050 C   0  0  0  0  0  3  0  0  0  0  0  0
   68.7620  -36.8210    0.4640 C   0  0  0  0  0  2  0  0  0  0  0  0
   66.8150  -38.2880   -2.0100 C   0  0  0  0  0  1  0  0  0  0  0  0
   68.1790  -36.2500   -2.6720 C   0  0  0  0  0  1  0  0  0  0  0  0
   67.1270  -38.3760    8.7480 C   0  0  0  0  0  0  0  0  0  0  0  0
   67.1800  -36.6570   10.2200 C   0  0  0  0  0  3  0  0  0  0  0  0
   65.9020  -38.3990    9.6700 C   0  0  0  0  0  2  0  0  0  0  0  0
   65.3510  -37.1560   11.8300 C   0  0  0  0  0  2  0  0  0  0  0  0
   63.9590  -36.8280   11.3520 C   0  0  0  0  0  3  0  0  0  0  0  0
   63.6960  -35.6370   10.6250 C   0  0  0  0  0  2  0  0  0  0  0  0
   62.8890  -37.7130   11.6330 C   0  0  0  0  0  2  0  0  0  0  0  0
   61.5810  -37.4120   11.1920 C   0  0  0  0  0  2  0  0  0  0  0  0
   62.3910  -35.3330   10.1840 C   0  0  0  0  0  2  0  0  0  0  0  0
   61.3290  -36.2200   10.4670 C   0  0  0  0  0  2  0  0  0  0  0  0
   68.2180  -39.5010    9.0680 C   0  0  0  0  0  2  0  0  0  0  0  0
   67.7700  -41.3860   12.4640 C   0  0  0  0  0  2  0  0  0  0  0  0
   68.7330  -40.7420   13.2770 C   0  0  0  0  0  2  0  0  0  0  0  0
   69.5320  -39.7040   12.7380 C   0  0  0  0  0  2  0  0  0  0  0  0
   69.3700  -39.3060   11.3830 C   0  0  0  0  0  2  0  0  0  0  0  0
   68.4040  -39.9390   10.5420 C   0  0  0  0  0  3  0  0  0  0  0  0
   67.6060  -40.9880   11.1060 C   0  0  0  0  0  2  0  0  0  0  0  0
   65.6270  -37.0290    5.4140 C   0  0  0  0  0  3  0  0  0  0  0  0
   64.0970  -36.7870    5.5100 C   0  0  0  0  0  2  0  0  0  0  0  0
   62.4980  -37.7930    7.2040 C   0  0  0  0  0  2  0  0  0  0  0  0
   63.5980  -39.2810    5.6050 C   0  0  0  0  0  2  0  0  0  0  0  0
   61.8390  -38.9090    7.7780 C   0  0  0  0  0  2  0  0  0  0  0  0
   62.9440  -40.3970    6.1760 C   0  0  0  0  0  2  0  0  0  0  0  0
   63.3830  -37.9670    6.1160 C   0  0  0  0  0  3  0  0  0  0  0  0
   62.0610  -40.2130    7.2670 C   0  0  0  0  0  2  0  0  0  0  0  0
   66.1310  -37.2790    6.7960 N   0  0  0  0  0  2  0  0  0  0  0  0
   68.1710  -35.9700    3.2000 N   0  0  0  0  0  2  0  0  0  0  0  0
   67.9540  -37.3950   -1.7730 N   0  0  0  0  0  0  0  0  0  0  0  0
   67.6540  -37.0420    9.0230 N   0  0  0  0  0  2  0  0  0  0  0  0
   66.3620  -37.6420   10.8430 N   0  0  0  0  0  0  0  0  0  0  0  0
   66.9880  -39.3950    6.5250 O   0  0  0  0  0  1  0  0  0  0  0  0
   67.4280  -35.5780   10.7490 O   0  0  0  0  0  1  0  0  0  0  0  0
   65.7990  -35.6160    3.5040 O   0  0  0  0  0  1  0  0  0  0  0  0
  1 13  1  0
  1 38  1  0
  1 43  1  0
  2  3  1  0
  2 30  1  0
  2 45  1  0
  3 39  1  0
  4  5  1  0
  4 39  1  0
  5  6  1  0
  5 10  1  0
  6  7  1  0
  7  8  1  0
  8  9  1  0
  9 10  1  0
  9 40  1  0
 11 40  1  0
 12 40  1  0
 13 15  1  0
 13 23  1  0
 13 41  1  0
 14 41  1  0
 14 42  1  0
 14 44  1  0
 15 42  1  0
 16 17  1  0
 16 42  1  0
 17 18  1  0
 17 19  1  0
 18 21  1  0
 19 20  1  0
 20 22  1  0
 21 22  1  0
 23 28  1  0
 24 25  1  0
 24 29  1  0
 25 26  1  0
 26 27  1  0
 27 28  1  0
 28 29  1  0
 30 31  1  0
 30 38  1  0
 31 36  1  0
 32 34  1  0
 32 36  1  0
 33 35  1  0
 33 36  1  0
 34 37  1  0
 35 37  1  0
M  END
$$$$
