3dm6_A_757_1000
     RDKit          3D

 62 65  0  0  0  0  0  0  0  0999 V2000
    0.1750   17.5420   27.3320 C   0  0  0  0  0  2  0  0  0  0  0  0
    1.6370   17.2530   30.9560 C   0  0  0  0  0  3  0  0  0  0  0  0
    2.0320   16.3190   32.0750 C   0  0  0  0  0  3  0  0  0  0  0  0
    3.2330   15.5890   32.0180 C   0  0  0  0  0  2  0  0  0  0  0  0
    3.6140   14.7240   33.0400 C   0  0  0  0  0  3  0  0  0  0  0  0
    2.7830   14.6220   34.1570 C   0  0  0  0  0  2  0  0  0  0  0  0
    1.5870   15.3350   34.2360 C   0  0  0  0  0  3  0  0  0  0  0  0
    1.2290   16.1880   33.1910 C   0  0  0  0  0  2  0  0  0  0  0  0
    0.6470   15.2960   35.4290 C   0  0  0  0  0  3  0  0  0  0  0  0
   -0.1940   16.6920   26.2810 C   0  0  0  0  0  2  0  0  0  0  0  0
    5.5170   13.7230   34.2220 C   0  0  0  0  0  1  0  0  0  0  0  0
    6.7020   14.6350   31.2640 C   0  0  0  0  0  1  0  0  0  0  0  0
   -1.2600   15.7920   26.4430 C   0  0  0  0  0  2  0  0  0  0  0  0
   -1.7340   15.3410   36.1830 C   0  0  0  0  0  3  0  0  0  0  0  0
   -2.7450   16.3920   35.7030 C   0  0  0  0  0  2  0  0  0  0  0  0
   -1.4560   18.3860   34.8690 C   0  0  0  0  0  3  0  0  0  0  0  0
   -0.9080   18.6450   36.1170 C   0  0  0  0  0  2  0  0  0  0  0  0
   -0.0540   19.7220   36.3250 C   0  0  0  0  0  3  0  0  0  0  0  0
    0.2730   20.5870   35.2940 C   0  0  0  0  0  2  0  0  0  0  0  0
   -0.2630   20.3470   34.0380 C   0  0  0  0  0  3  0  0  0  0  0  0
   -1.1280   19.2580   33.8220 C   0  0  0  0  0  2  0  0  0  0  0  0
   -1.9480   15.7490   27.6660 C   0  0  0  0  0  2  0  0  0  0  0  0
   -2.5270   14.0720   36.4140 C   0  0  0  0  0  3  0  0  0  0  0  0
   -1.7820   13.0560   37.3060 C   0  0  0  0  0  2  0  0  0  0  0  0
   -1.6690   13.4810   38.7790 C   0  0  0  0  0  3  0  0  0  0  0  0
   -2.3680   13.5850   41.1320 C   0  0  0  0  0  3  0  0  0  0  0  0
   -3.4660   13.3100   42.1690 C   0  0  0  0  0  3  0  0  0  0  0  0
   -3.6660   14.5510   43.0450 C   0  0  0  0  0  1  0  0  0  0  0  0
   -1.5590   16.5910   28.7170 C   0  0  0  0  0  2  0  0  0  0  0  0
   -4.7750   12.8150   41.6000 C   0  0  0  0  0  1  0  0  0  0  0  0
   -1.2160   12.8660   41.7780 C   0  0  0  0  0  3  0  0  0  0  0  0
    0.6050   12.9770   43.2270 C   0  0  0  0  0  3  0  0  0  0  0  0
    0.4340   12.3090   44.4130 C   0  0  0  0  0  2  0  0  0  0  0  0
    1.5300   11.7180   45.0070 C   0  0  0  0  0  3  0  0  0  0  0  0
    2.8050   11.7830   44.4280 C   0  0  0  0  0  2  0  0  0  0  0  0
    2.9640   12.4680   43.2140 C   0  0  0  0  0  3  0  0  0  0  0  0
    1.8490   13.0560   42.6320 C   0  0  0  0  0  2  0  0  0  0  0  0
   -0.5080   17.5060   28.5660 C   0  0  0  0  0  3  0  0  0  0  0  0
    1.2540   11.0080   46.2860 C   0  0  0  0  0  3  0  0  0  0  0  0
    4.2740   12.6140   42.4790 C   0  0  0  0  0  3  0  0  0  0  0  0
   -0.0850   18.4220   29.6770 C   0  0  0  0  0  3  0  0  0  0  0  0
   -1.2020   19.3420   30.1490 C   0  0  0  0  0  1  0  0  0  0  0  0
    0.0750   21.1950   33.0400 F   0  0  0  0  0  0  0  0  0  0  0  0
    0.4330   19.9170   37.5520 F   0  0  0  0  0  0  0  0  0  0  0  0
    4.8280   14.0030   32.9710 N   0  0  0  0  0  0  0  0  0  0  0  0
   -0.6690   15.2860   35.2020 N   0  0  0  0  0  2  0  0  0  0  0  0
   -2.5780   13.1710   39.7350 N   0  0  0  0  0  2  0  0  0  0  0  0
   -0.4340   13.5530   42.6200 N   0  0  0  0  0  2  0  0  0  0  0  0
    0.3680   17.6180   30.7880 N   0  0  0  0  0  2  0  0  0  0  0  0
    2.5070   17.7160   30.2080 O   0  0  0  0  0  1  0  0  0  0  0  0
    1.1170   15.3350   36.5570 O   0  0  0  0  0  1  0  0  0  0  0  0
    6.2090   12.2740   31.9700 O   0  0  0  0  0  1  0  0  0  0  0  0
    4.6050   13.3760   30.5500 O   0  0  0  0  0  1  0  0  0  0  0  0
   -2.2890   17.2960   34.6830 O   0  0  0  0  0  0  0  0  0  0  0  0
   -2.8590   13.5780   35.1130 O   0  0  0  0  0  1  0  0  0  0  0  0
   -0.6950   14.1400   39.1130 O   0  0  0  0  0  1  0  0  0  0  0  0
   -1.0470   11.6730   41.5840 O   0  0  0  0  0  1  0  0  0  0  0  0
    1.3500    9.7560   46.3140 O   0  0  0  0  0  1  0  0  0  0  0  0
    0.9000   11.6810   47.2850 O   0  0  0  0  0  1  0  0  0  0  0  0
    4.3420   12.2550   41.2780 O   0  0  0  0  0  1  0  0  0  0  0  0
    5.2710   13.1250   43.0460 O   0  0  0  0  0  1  0  0  0  0  0  0
    5.5280   13.5200   31.6770 S   0  0  0  0  0  4  0  0  0  0  0  0
  1 10  1  0
  1 38  1  0
  2  3  1  0
  2 49  1  0
  2 50  1  0
  3  4  1  0
  3  8  1  0
  4  5  1  0
  5  6  1  0
  5 45  1  0
  6  7  1  0
  7  8  1  0
  7  9  1  0
  9 46  1  0
  9 51  1  0
 10 13  1  0
 11 45  1  0
 12 62  1  0
 13 22  1  0
 14 15  1  0
 14 23  1  0
 14 46  1  0
 15 54  1  0
 16 17  1  0
 16 21  1  0
 16 54  1  0
 17 18  1  0
 18 19  1  0
 18 44  1  0
 19 20  1  0
 20 21  1  0
 20 43  1  0
 22 29  1  0
 23 24  1  0
 23 55  1  0
 24 25  1  0
 25 47  1  0
 25 56  1  0
 26 27  1  0
 26 31  1  0
 26 47  1  0
 27 28  1  0
 27 30  1  0
 29 38  1  0
 31 48  1  0
 31 57  1  0
 32 33  1  0
 32 37  1  0
 32 48  1  0
 33 34  1  0
 34 35  1  0
 34 39  1  0
 35 36  1  0
 36 37  1  0
 36 40  1  0
 38 41  1  0
 39 58  1  0
 39 59  1  0
 40 60  1  0
 40 61  1  0
 41 42  1  0
 41 49  1  0
 45 62  1  0
 52 62  1  0
 53 62  1  0
M  END
$$$$
