3dm6_B_757_1000
     RDKit          3D

 62 65  0  0  0  0  0  0  0  0999 V2000
    9.5100   12.2750   67.4200 C   0  0  0  0  0  2  0  0  0  0  0  0
   11.6760   13.0250   70.6950 C   0  0  0  0  0  3  0  0  0  0  0  0
   11.7370   13.6810   72.0300 C   0  0  0  0  0  3  0  0  0  0  0  0
   10.9950   13.1930   73.1060 C   0  0  0  0  0  2  0  0  0  0  0  0
   11.0360   13.8260   74.3510 C   0  0  0  0  0  3  0  0  0  0  0  0
   11.8700   14.9670   74.4950 C   0  0  0  0  0  2  0  0  0  0  0  0
   12.6130   15.4680   73.4010 C   0  0  0  0  0  3  0  0  0  0  0  0
   12.5430   14.8060   72.1730 C   0  0  0  0  0  2  0  0  0  0  0  0
   13.5320   16.6690   73.4210 C   0  0  0  0  0  3  0  0  0  0  0  0
    8.2320   12.4200   66.8620 C   0  0  0  0  0  2  0  0  0  0  0  0
   10.8020   13.4090   76.8190 C   0  0  0  0  0  1  0  0  0  0  0  0
    9.3580   10.8240   75.3440 C   0  0  0  0  0  1  0  0  0  0  0  0
    7.7100   13.6970   66.6560 C   0  0  0  0  0  2  0  0  0  0  0  0
   14.3400   18.6780   72.2600 C   0  0  0  0  0  3  0  0  0  0  0  0
   14.8640   18.6990   70.8150 C   0  0  0  0  0  2  0  0  0  0  0  0
   15.4610   16.3440   70.2680 C   0  0  0  0  0  3  0  0  0  0  0  0
   16.3390   16.1930   71.3400 C   0  0  0  0  0  2  0  0  0  0  0  0
   17.1060   15.0400   71.4920 C   0  0  0  0  0  3  0  0  0  0  0  0
   17.0130   14.0160   70.5700 C   0  0  0  0  0  2  0  0  0  0  0  0
   16.1410   14.1700   69.5070 C   0  0  0  0  0  3  0  0  0  0  0  0
   15.3740   15.3200   69.3420 C   0  0  0  0  0  2  0  0  0  0  0  0
    8.4790   14.8190   66.9990 C   0  0  0  0  0  2  0  0  0  0  0  0
   13.7330   20.0430   72.5290 C   0  0  0  0  0  3  0  0  0  0  0  0
   13.5250   20.2940   74.0210 C   0  0  0  0  0  2  0  0  0  0  0  0
   14.8390   20.6320   74.7060 C   0  0  0  0  0  3  0  0  0  0  0  0
   16.4740   22.1980   75.5290 C   0  0  0  0  0  3  0  0  0  0  0  0
   17.0790   23.6000   75.4990 C   0  0  0  0  0  3  0  0  0  0  0  0
   18.5540   23.4500   75.1530 C   0  0  0  0  0  1  0  0  0  0  0  0
    9.7560   14.6590   67.5540 C   0  0  0  0  0  2  0  0  0  0  0  0
   16.3470   24.5870   74.6160 C   0  0  0  0  0  1  0  0  0  0  0  0
   16.1530   22.0430   76.9810 C   0  0  0  0  0  3  0  0  0  0  0  0
   17.1450   20.9900   78.9150 C   0  0  0  0  0  3  0  0  0  0  0  0
   16.3500   19.9820   79.4510 C   0  0  0  0  0  2  0  0  0  0  0  0
   16.4640   19.6300   80.7900 C   0  0  0  0  0  3  0  0  0  0  0  0
   17.4160   20.2900   81.5840 C   0  0  0  0  0  2  0  0  0  0  0  0
   18.2270   21.2920   81.0290 C   0  0  0  0  0  3  0  0  0  0  0  0
   18.0900   21.6320   79.6910 C   0  0  0  0  0  2  0  0  0  0  0  0
   10.2700   13.3890   67.7720 C   0  0  0  0  0  3  0  0  0  0  0  0
   15.5590   18.5310   81.3150 C   0  0  0  0  0  3  0  0  0  0  0  0
   19.2740   22.0480   81.8050 C   0  0  0  0  0  3  0  0  0  0  0  0
   11.6420   13.1920   68.3000 C   0  0  0  0  0  3  0  0  0  0  0  0
   12.6140   13.8330   67.3020 C   0  0  0  0  0  1  0  0  0  0  0  0
   16.0250   13.1870   68.6070 F   0  0  0  0  0  0  0  0  0  0  0  0
   17.9370   14.9300   72.5360 F   0  0  0  0  0  0  0  0  0  0  0  0
   10.2870   13.2750   75.4470 N   0  0  0  0  0  0  0  0  0  0  0  0
   13.4650   17.5280   72.4070 N   0  0  0  0  0  2  0  0  0  0  0  0
   15.3600   21.8710   74.6520 N   0  0  0  0  0  2  0  0  0  0  0  0
   17.0720   21.3220   77.6170 N   0  0  0  0  0  2  0  0  0  0  0  0
   11.8780   13.7520   69.6130 N   0  0  0  0  0  2  0  0  0  0  0  0
   11.4220   11.8520   70.5880 O   0  0  0  0  0  1  0  0  0  0  0  0
   14.3300   16.8240   74.3190 O   0  0  0  0  0  1  0  0  0  0  0  0
    8.0980   12.6990   76.3970 O   0  0  0  0  0  1  0  0  0  0  0  0
    8.3470   12.7120   74.0380 O   0  0  0  0  0  1  0  0  0  0  0  0
   14.6810   17.4620   70.0990 O   0  0  0  0  0  0  0  0  0  0  0  0
   12.4990   20.1020   71.8230 O   0  0  0  0  0  1  0  0  0  0  0  0
   15.4100   19.7420   75.3280 O   0  0  0  0  0  1  0  0  0  0  0  0
   15.1730   22.5830   77.4950 O   0  0  0  0  0  1  0  0  0  0  0  0
   14.3890   18.3770   80.8790 O   0  0  0  0  0  1  0  0  0  0  0  0
   15.9780   17.7280   82.1830 O   0  0  0  0  0  1  0  0  0  0  0  0
   18.9290   22.9030   82.6560 O   0  0  0  0  0  1  0  0  0  0  0  0
   20.4920   21.8370   81.5620 O   0  0  0  0  0  1  0  0  0  0  0  0
    8.9940   12.4520   75.2990 S   0  0  0  0  0  4  0  0  0  0  0  0
  1 10  1  0
  1 38  1  0
  2  3  1  0
  2 49  1  0
  2 50  1  0
  3  4  1  0
  3  8  1  0
  4  5  1  0
  5  6  1  0
  5 45  1  0
  6  7  1  0
  7  8  1  0
  7  9  1  0
  9 46  1  0
  9 51  1  0
 10 13  1  0
 11 45  1  0
 12 62  1  0
 13 22  1  0
 14 15  1  0
 14 23  1  0
 14 46  1  0
 15 54  1  0
 16 17  1  0
 16 21  1  0
 16 54  1  0
 17 18  1  0
 18 19  1  0
 18 44  1  0
 19 20  1  0
 20 21  1  0
 20 43  1  0
 22 29  1  0
 23 24  1  0
 23 55  1  0
 24 25  1  0
 25 47  1  0
 25 56  1  0
 26 27  1  0
 26 31  1  0
 26 47  1  0
 27 28  1  0
 27 30  1  0
 29 38  1  0
 31 48  1  0
 31 57  1  0
 32 33  1  0
 32 37  1  0
 32 48  1  0
 33 34  1  0
 34 35  1  0
 34 39  1  0
 35 36  1  0
 36 37  1  0
 36 40  1  0
 38 41  1  0
 39 58  1  0
 39 59  1  0
 40 60  1  0
 40 61  1  0
 41 42  1  0
 41 49  1  0
 45 62  1  0
 52 62  1  0
 53 62  1  0
M  END
$$$$
