3dm6_C_757_1000
     RDKit          3D

 62 65  0  0  0  0  0  0  0  0999 V2000
  -25.3030   25.9470   -1.8490 C   0  0  0  0  0  2  0  0  0  0  0  0
  -22.8460   25.1420    1.1810 C   0  0  0  0  0  3  0  0  0  0  0  0
  -21.3960   25.0500    1.6240 C   0  0  0  0  0  3  0  0  0  0  0  0
  -20.6250   26.1870    1.9410 C   0  0  0  0  0  2  0  0  0  0  0  0
  -19.2880   26.0840    2.3790 C   0  0  0  0  0  3  0  0  0  0  0  0
  -18.7300   24.7920    2.5150 C   0  0  0  0  0  2  0  0  0  0  0  0
  -19.4850   23.6510    2.1720 C   0  0  0  0  0  3  0  0  0  0  0  0
  -20.8090   23.7940    1.7580 C   0  0  0  0  0  2  0  0  0  0  0  0
  -19.0290   22.2160    2.3080 C   0  0  0  0  0  3  0  0  0  0  0  0
  -25.2700   26.4830   -3.1310 C   0  0  0  0  0  2  0  0  0  0  0  0
  -17.5570   27.2620    3.7380 C   0  0  0  0  0  1  0  0  0  0  0  0
  -19.8620   29.6050    2.9610 C   0  0  0  0  0  1  0  0  0  0  0  0
  -24.5210   25.8320   -4.1300 C   0  0  0  0  0  2  0  0  0  0  0  0
  -18.9460   19.8580    1.4940 C   0  0  0  0  0  3  0  0  0  0  0  0
  -20.1710   19.0000    1.1250 C   0  0  0  0  0  2  0  0  0  0  0  0
  -22.1380   19.9810    2.3400 C   0  0  0  0  0  3  0  0  0  0  0  0
  -21.7120   19.5820    3.5840 C   0  0  0  0  0  2  0  0  0  0  0  0
  -22.4360   19.9080    4.7260 C   0  0  0  0  0  3  0  0  0  0  0  0
  -23.6160   20.6360    4.6580 C   0  0  0  0  0  2  0  0  0  0  0  0
  -24.0400   21.0200    3.3990 C   0  0  0  0  0  3  0  0  0  0  0  0
  -23.3060   20.7020    2.2560 C   0  0  0  0  0  2  0  0  0  0  0  0
  -23.8100   24.6550   -3.8300 C   0  0  0  0  0  2  0  0  0  0  0  0
  -17.8270   19.3620    0.5640 C   0  0  0  0  0  3  0  0  0  0  0  0
  -16.3900   19.5540    1.0820 C   0  0  0  0  0  2  0  0  0  0  0  0
  -16.0410   18.8700    2.4030 C   0  0  0  0  0  3  0  0  0  0  0  0
  -14.9910   16.9720    3.6200 C   0  0  0  0  0  3  0  0  0  0  0  0
  -14.4040   15.5580    3.4590 C   0  0  0  0  0  3  0  0  0  0  0  0
  -15.2530   14.5520    4.2370 C   0  0  0  0  0  1  0  0  0  0  0  0
  -23.8610   24.1080   -2.5290 C   0  0  0  0  0  2  0  0  0  0  0  0
  -14.1640   15.1080    2.0200 C   0  0  0  0  0  1  0  0  0  0  0  0
  -13.8530   17.7210    4.2460 C   0  0  0  0  0  3  0  0  0  0  0  0
  -13.0900   18.4300    6.4890 C   0  0  0  0  0  3  0  0  0  0  0  0
  -12.9220   19.8090    6.5040 C   0  0  0  0  0  2  0  0  0  0  0  0
  -12.1110   20.4190    7.4620 C   0  0  0  0  0  3  0  0  0  0  0  0
  -11.4720   19.6250    8.4280 C   0  0  0  0  0  2  0  0  0  0  0  0
  -11.6530   18.2400    8.4260 C   0  0  0  0  0  3  0  0  0  0  0  0
  -12.4670   17.6580    7.4620 C   0  0  0  0  0  2  0  0  0  0  0  0
  -24.6110   24.7710   -1.5270 C   0  0  0  0  0  3  0  0  0  0  0  0
  -11.9390   21.9240    7.4140 C   0  0  0  0  0  3  0  0  0  0  0  0
  -10.9980   17.3480    9.4460 C   0  0  0  0  0  3  0  0  0  0  0  0
  -24.7260   24.2120   -0.1590 C   0  0  0  0  0  3  0  0  0  0  0  0
  -25.2900   22.8140   -0.3550 C   0  0  0  0  0  1  0  0  0  0  0  0
  -25.1680   21.7310    3.2780 F   0  0  0  0  0  0  0  0  0  0  0  0
  -21.9900   19.4990    5.9220 F   0  0  0  0  0  0  0  0  0  0  0  0
  -18.5720   27.2790    2.7040 N   0  0  0  0  0  0  0  0  0  0  0  0
  -19.2970   21.2770    1.3870 N   0  0  0  0  0  2  0  0  0  0  0  0
  -15.5070   17.6330    2.4130 N   0  0  0  0  0  2  0  0  0  0  0  0
  -13.9150   17.8290    5.5880 N   0  0  0  0  0  2  0  0  0  0  0  0
  -23.4750   24.1050    0.6050 N   0  0  0  0  0  2  0  0  0  0  0  0
  -23.4690   26.1660    1.3920 O   0  0  0  0  0  1  0  0  0  0  0  0
  -18.4790   21.9320    3.3460 O   0  0  0  0  0  1  0  0  0  0  0  0
  -17.6610   29.4120    1.8560 O   0  0  0  0  0  1  0  0  0  0  0  0
  -19.4280   28.4040    0.7490 O   0  0  0  0  0  1  0  0  0  0  0  0
  -21.4420   19.6930    1.1850 O   0  0  0  0  0  0  0  0  0  0  0  0
  -17.9700   20.0090   -0.6990 O   0  0  0  0  0  1  0  0  0  0  0  0
  -16.2240   19.4840    3.4620 O   0  0  0  0  0  1  0  0  0  0  0  0
  -12.9410   18.1560    3.5550 O   0  0  0  0  0  1  0  0  0  0  0  0
  -12.4500   22.5810    6.4640 O   0  0  0  0  0  1  0  0  0  0  0  0
  -11.2800   22.5220    8.3070 O   0  0  0  0  0  1  0  0  0  0  0  0
  -10.0080   17.7350   10.1070 O   0  0  0  0  0  1  0  0  0  0  0  0
  -11.4470   16.1970    9.6520 O   0  0  0  0  0  1  0  0  0  0  0  0
  -18.8500   28.6460    2.0460 S   0  0  0  0  0  4  0  0  0  0  0  0
  1 10  1  0
  1 38  1  0
  2  3  1  0
  2 49  1  0
  2 50  1  0
  3  4  1  0
  3  8  1  0
  4  5  1  0
  5  6  1  0
  5 45  1  0
  6  7  1  0
  7  8  1  0
  7  9  1  0
  9 46  1  0
  9 51  1  0
 10 13  1  0
 11 45  1  0
 12 62  1  0
 13 22  1  0
 14 15  1  0
 14 23  1  0
 14 46  1  0
 15 54  1  0
 16 17  1  0
 16 21  1  0
 16 54  1  0
 17 18  1  0
 18 19  1  0
 18 44  1  0
 19 20  1  0
 20 21  1  0
 20 43  1  0
 22 29  1  0
 23 24  1  0
 23 55  1  0
 24 25  1  0
 25 47  1  0
 25 56  1  0
 26 27  1  0
 26 31  1  0
 26 47  1  0
 27 28  1  0
 27 30  1  0
 29 38  1  0
 31 48  1  0
 31 57  1  0
 32 33  1  0
 32 37  1  0
 32 48  1  0
 33 34  1  0
 34 35  1  0
 34 39  1  0
 35 36  1  0
 36 37  1  0
 36 40  1  0
 38 41  1  0
 39 58  1  0
 39 59  1  0
 40 60  1  0
 40 61  1  0
 41 42  1  0
 41 49  1  0
 45 62  1  0
 52 62  1  0
 53 62  1  0
M  END
$$$$
