3duy_B_AFJ_501
     RDKit          3D

 33 32  0  0  0  0  0  0  0  0999 V2000
   19.1580    2.5620  -18.4200 C   0  0  0  0  0  3  0  0  0  0  0  0
   18.8360    1.6320  -17.2760 C   0  0  0  0  0  2  0  0  0  0  0  0
   19.2180    2.1990  -15.8780 C   0  0  0  0  0  2  0  0  0  0  0  0
   19.4320    2.4460  -21.9060 C   0  0  0  0  0  2  0  0  0  0  0  0
   18.2900    3.3210  -15.3240 C   0  0  0  0  0  3  0  0  0  0  0  0
   19.0710    4.2360  -14.3410 C   0  0  0  0  0  1  0  0  0  0  0  0
   17.0830    2.6960  -14.5730 C   0  0  0  0  0  1  0  0  0  0  0  0
   17.1400    5.0730  -20.1070 C   0  0  0  0  0  3  0  0  0  0  0  0
   16.3440    7.1050  -18.9010 C   0  0  0  0  0  3  0  0  0  0  0  0
   16.9470    8.4620  -19.3990 C   0  0  0  0  0  3  0  0  0  0  0  0
   17.3610    8.5030  -20.9030 C   0  0  0  0  0  2  0  0  0  0  0  0
   17.2350    9.8830  -21.6160 C   0  0  0  0  0  3  0  0  0  0  0  0
   18.2680    9.9600  -22.7770 C   0  0  0  0  0  1  0  0  0  0  0  0
   15.8490   10.1410  -22.1860 C   0  0  0  0  0  3  0  0  0  0  0  0
   18.1280    3.2120  -21.5650 C   0  0  0  0  0  2  0  0  0  0  0  0
   14.0390   11.7600  -22.5510 C   0  0  0  0  0  2  0  0  0  0  0  0
   13.8000   13.2880  -22.4970 C   0  0  0  0  0  2  0  0  0  0  0  0
   12.6490   13.7050  -23.4490 C   0  0  0  0  0  2  0  0  0  0  0  0
   11.2620   13.3630  -22.8470 C   0  0  0  0  0  1  0  0  0  0  0  0
   15.8340    7.1010  -17.4270 C   0  0  0  0  0  2  0  0  0  0  0  0
   15.1510    5.7760  -16.9600 C   0  0  0  0  0  3  0  0  0  0  0  0
   13.7680    5.5260  -17.6300 C   0  0  0  0  0  1  0  0  0  0  0  0
   14.9840    5.7830  -15.4110 C   0  0  0  0  0  1  0  0  0  0  0  0
   20.5040    0.3330  -23.3240 C   0  0  0  0  0  1  0  0  0  0  0  0
   18.2070    4.0010  -20.2210 C   0  0  0  0  0  3  0  0  0  0  0  0
   18.0890    3.0970  -19.0740 N   0  0  0  0  0  2  0  0  0  0  0  0
   17.3020    6.0140  -19.1240 N   0  0  0  0  0  2  0  0  0  0  0  0
   15.3450   11.3840  -22.0260 N   0  0  0  0  0  2  0  0  0  0  0  0
   20.3290    2.7930  -18.7150 O   0  0  0  0  0  1  0  0  0  0  0  0
   16.1860    5.0670  -20.8800 O   0  0  0  0  0  1  0  0  0  0  0  0
   17.9960    8.9290  -18.5310 O   0  0  0  0  0  1  0  0  0  0  0  0
   15.2440    9.2420  -22.7600 O   0  0  0  0  0  1  0  0  0  0  0  0
   19.2730    1.6670  -23.5400 S   0  0  0  0  0  0  0  0  0  0  0  0
  1  2  1  0
  1 26  1  0
  1 29  1  0
  2  3  1  0
  3  5  1  0
  4 15  1  0
  4 33  1  0
  5  6  1  0
  5  7  1  0
  8 25  1  0
  8 27  1  0
  8 30  1  0
  9 10  1  0
  9 20  1  0
  9 27  1  0
 10 11  1  0
 10 31  1  0
 11 12  1  0
 12 13  1  0
 12 14  1  0
 14 28  1  0
 14 32  1  0
 15 25  1  0
 16 17  1  0
 16 28  1  0
 17 18  1  0
 18 19  1  0
 20 21  1  0
 21 22  1  0
 21 23  1  0
 24 33  1  0
 25 26  1  0
M  END
$$$$
