3duy_C_AFJ_501
     RDKit          3D

 33 32  0  0  0  0  0  0  0  0999 V2000
    7.0270  -37.7200   48.8360 C   0  0  0  0  0  3  0  0  0  0  0  0
    5.5230  -37.6130   48.9630 C   0  0  0  0  0  2  0  0  0  0  0  0
    4.7560  -38.1070   47.7020 C   0  0  0  0  0  2  0  0  0  0  0  0
    9.8900  -36.4990   50.4600 C   0  0  0  0  0  2  0  0  0  0  0  0
    4.7330  -39.6530   47.4820 C   0  0  0  0  0  3  0  0  0  0  0  0
    4.5690  -39.9880   45.9770 C   0  0  0  0  0  1  0  0  0  0  0  0
    3.5440  -40.2830   48.2550 C   0  0  0  0  0  1  0  0  0  0  0  0
    9.3450  -40.3320   49.8130 C   0  0  0  0  0  3  0  0  0  0  0  0
    9.2880  -42.5750   48.7190 C   0  0  0  0  0  3  0  0  0  0  0  0
   10.5480  -42.9370   47.8650 C   0  0  0  0  0  3  0  0  0  0  0  0
   11.8860  -42.2660   48.3110 C   0  0  0  0  0  2  0  0  0  0  0  0
   13.1840  -43.0840   48.0540 C   0  0  0  0  0  3  0  0  0  0  0  0
   14.3860  -42.1200   47.8980 C   0  0  0  0  0  1  0  0  0  0  0  0
   13.5060  -44.0600   49.1750 C   0  0  0  0  0  3  0  0  0  0  0  0
    9.7540  -38.0040   50.8020 C   0  0  0  0  0  2  0  0  0  0  0  0
   14.3100  -46.3100   49.7990 C   0  0  0  0  0  2  0  0  0  0  0  0
   15.0280  -47.5200   49.1490 C   0  0  0  0  0  2  0  0  0  0  0  0
   15.8010  -48.3450   50.2120 C   0  0  0  0  0  2  0  0  0  0  0  0
   14.8320  -49.2180   51.0390 C   0  0  0  0  0  1  0  0  0  0  0  0
    7.9720  -43.3120   48.3190 C   0  0  0  0  0  2  0  0  0  0  0  0
    6.7450  -43.0180   49.2430 C   0  0  0  0  0  3  0  0  0  0  0  0
    6.8860  -43.6340   50.6690 C   0  0  0  0  0  1  0  0  0  0  0  0
    5.4420  -43.5440   48.5740 C   0  0  0  0  0  1  0  0  0  0  0  0
   10.1300  -33.9530   51.5310 C   0  0  0  0  0  1  0  0  0  0  0  0
    9.0880  -38.8450   49.6660 C   0  0  0  0  0  3  0  0  0  0  0  0
    7.6360  -38.6280   49.6480 N   0  0  0  0  0  2  0  0  0  0  0  0
    9.0890  -41.1150   48.7260 N   0  0  0  0  0  2  0  0  0  0  0  0
   13.9460  -45.2870   48.8160 N   0  0  0  0  0  2  0  0  0  0  0  0
    7.6300  -37.0080   48.0360 O   0  0  0  0  0  1  0  0  0  0  0  0
    9.7660  -40.7740   50.8810 O   0  0  0  0  0  1  0  0  0  0  0  0
   10.3010  -42.7610   46.4600 O   0  0  0  0  0  1  0  0  0  0  0  0
   13.3630  -43.7140   50.3370 O   0  0  0  0  0  1  0  0  0  0  0  0
   10.7710  -35.6370   51.8030 S   0  0  0  0  0  0  0  0  0  0  0  0
  1  2  1  0
  1 26  1  0
  1 29  1  0
  2  3  1  0
  3  5  1  0
  4 15  1  0
  4 33  1  0
  5  6  1  0
  5  7  1  0
  8 25  1  0
  8 27  1  0
  8 30  1  0
  9 10  1  0
  9 20  1  0
  9 27  1  0
 10 11  1  0
 10 31  1  0
 11 12  1  0
 12 13  1  0
 12 14  1  0
 14 28  1  0
 14 32  1  0
 15 25  1  0
 16 17  1  0
 16 28  1  0
 17 18  1  0
 18 19  1  0
 20 21  1  0
 21 22  1  0
 21 23  1  0
 24 33  1  0
 25 26  1  0
M  END
$$$$
