3dv1_C_AR9_501
     RDKit          3D

 31 31  0  0  0  0  0  0  0  0999 V2000
    5.3460  -42.9570   48.2940 C   0  0  0  0  0  2  0  0  0  0  0  0
    4.9200  -41.8980   47.2450 C   0  0  0  0  0  2  0  0  0  0  0  0
    4.0980  -40.8170   47.9530 C   0  0  0  0  0  2  0  0  0  0  0  0
    3.6210  -39.7160   46.9560 C   0  0  0  0  0  2  0  0  0  0  0  0
    4.6010  -38.5210   46.9570 C   0  0  0  0  0  2  0  0  0  0  0  0
    4.6510  -38.0270   48.4080 C   0  0  0  0  0  2  0  0  0  0  0  0
    5.5710  -36.8370   48.5930 C   0  0  0  0  0  2  0  0  0  0  0  0
    9.1790  -42.1980   48.4910 C   0  0  0  0  0  3  0  0  0  0  0  0
    7.0280  -37.1690   48.4660 C   0  0  0  0  0  3  0  0  0  0  0  0
    8.9720  -38.4900   49.1240 C   0  0  0  0  0  3  0  0  0  0  0  0
    9.2370  -39.9470   49.4000 C   0  0  0  0  0  3  0  0  0  0  0  0
    9.6400  -37.5780   50.1960 C   0  0  0  0  0  1  0  0  0  0  0  0
    6.9250  -43.4480   50.1970 C   0  0  0  0  0  1  0  0  0  0  0  0
   10.4330  -42.6700   47.7200 C   0  0  0  0  0  3  0  0  0  0  0  0
    7.8850  -42.8750   47.9500 C   0  0  0  0  0  2  0  0  0  0  0  0
   11.6910  -41.8780   48.1780 C   0  0  0  0  0  2  0  0  0  0  0  0
   12.9440  -42.7040   47.8040 C   0  0  0  0  0  3  0  0  0  0  0  0
   14.1420  -41.7620   47.6200 C   0  0  0  0  0  1  0  0  0  0  0  0
   13.3530  -43.6300   48.9350 C   0  0  0  0  0  3  0  0  0  0  0  0
   14.3550  -45.7510   49.5920 C   0  0  0  0  0  2  0  0  0  0  0  0
   14.8950  -46.9930   48.8480 C   0  0  0  0  0  2  0  0  0  0  0  0
   15.6310  -47.9670   49.8000 C   0  0  0  0  0  2  0  0  0  0  0  0
   14.6250  -48.6570   50.7520 C   0  0  0  0  0  1  0  0  0  0  0  0
    6.7140  -42.5750   48.9280 C   0  0  0  0  0  3  0  0  0  0  0  0
    8.9930  -40.7590   48.3510 N   0  0  0  0  0  2  0  0  0  0  0  0
    7.5240  -38.2170   49.1790 N   0  0  0  0  0  2  0  0  0  0  0  0
   13.9020  -44.7930   48.5660 N   0  0  0  0  0  2  0  0  0  0  0  0
    9.6450  -40.3350   50.4990 O   0  0  0  0  0  1  0  0  0  0  0  0
    7.6980  -36.4670   47.7260 O   0  0  0  0  0  1  0  0  0  0  0  0
   10.2660  -42.4320   46.3140 O   0  0  0  0  0  1  0  0  0  0  0  0
   13.1720  -43.2960   50.0990 O   0  0  0  0  0  1  0  0  0  0  0  0
  1  2  1  0
  1 24  1  0
  2  3  1  0
  3  4  1  0
  4  5  1  0
  5  6  1  0
  6  7  1  0
  7  9  1  0
  8 14  1  0
  8 15  1  0
  8 25  1  0
  9 26  1  0
  9 29  1  0
 10 11  1  0
 10 12  1  0
 10 26  1  0
 11 25  1  0
 11 28  1  0
 13 24  1  0
 14 16  1  0
 14 30  1  0
 15 24  1  0
 16 17  1  0
 17 18  1  0
 17 19  1  0
 19 27  1  0
 19 31  1  0
 20 21  1  0
 20 27  1  0
 21 22  1  0
 22 23  1  0
M  END
$$$$
