3dv5_B_BAV_501
     RDKit          3D

 35 36  0  0  0  0  0  0  0  0999 V2000
   14.6980    5.9940  -16.9780 C   0  0  0  0  0  3  0  0  0  0  0  0
   14.3740    6.1310  -15.4280 C   0  0  0  0  0  2  0  0  0  0  0  0
   13.9070    4.8380  -14.7150 C   0  0  0  0  0  2  0  0  0  0  0  0
   17.3560    4.3800  -20.5230 C   0  0  0  0  0  3  0  0  0  0  0  0
   14.9620    3.7040  -14.7260 C   0  0  0  0  0  2  0  0  0  0  0  0
   16.2990    4.1280  -14.0750 C   0  0  0  0  0  2  0  0  0  0  0  0
   17.2380    2.8820  -13.9210 C   0  0  0  0  0  2  0  0  0  0  0  0
   17.3650    2.0140  -15.2320 C   0  0  0  0  0  2  0  0  0  0  0  0
   17.9070    2.8410  -16.4290 C   0  0  0  0  0  2  0  0  0  0  0  0
   18.1700    1.9540  -17.6880 C   0  0  0  0  0  2  0  0  0  0  0  0
   18.3120    2.8890  -18.8470 C   0  0  0  0  0  3  0  0  0  0  0  0
   16.3740    5.5520  -20.3760 C   0  0  0  0  0  3  0  0  0  0  0  0
   13.4590    5.5380  -17.8090 C   0  0  0  0  0  1  0  0  0  0  0  0
   16.2600    8.7900  -19.3060 C   0  0  0  0  0  3  0  0  0  0  0  0
   16.6000    8.8990  -20.8010 C   0  0  0  0  0  2  0  0  0  0  0  0
   17.1000   10.6610  -22.4730 C   0  0  0  0  0  2  0  0  0  0  0  0
   15.6480   10.7330  -23.0350 C   0  0  0  0  0  3  0  0  0  0  0  0
   14.6600   11.5820  -22.4860 C   0  0  0  0  0  2  0  0  0  0  0  0
   13.3680   11.6170  -23.0830 C   0  0  0  0  0  3  0  0  0  0  0  0
   13.0820   10.8190  -24.2000 C   0  0  0  0  0  2  0  0  0  0  0  0
   14.0540    9.9610  -24.7220 C   0  0  0  0  0  2  0  0  0  0  0  0
   15.3320    9.9160  -24.1380 C   0  0  0  0  0  2  0  0  0  0  0  0
   12.2330   12.5000  -22.5680 C   0  0  0  0  0  3  0  0  0  0  0  0
   12.6670   13.9700  -22.5760 C   0  0  0  0  0  1  0  0  0  0  0  0
   15.5470    7.4110  -18.9820 C   0  0  0  0  0  3  0  0  0  0  0  0
   11.8160   12.0850  -21.1660 C   0  0  0  0  0  1  0  0  0  0  0  0
   17.1830    3.6060  -21.8470 C   0  0  0  0  0  1  0  0  0  0  0  0
   15.8480    3.0110  -18.9740 C   0  0  0  0  0  1  0  0  0  0  0  0
   15.1340    7.4170  -17.4940 C   0  0  0  0  0  2  0  0  0  0  0  0
   17.1810    3.4320  -19.4360 N   0  0  0  0  0  0  0  0  0  0  0  0
   16.4550    6.2880  -19.2210 N   0  0  0  0  0  2  0  0  0  0  0  0
   17.1410   10.2600  -21.0580 N   0  0  0  0  0  2  0  0  0  0  0  0
   19.4480    3.1340  -19.2280 O   0  0  0  0  0  1  0  0  0  0  0  0
   15.4370    9.9120  -18.9630 O   0  0  0  0  0  1  0  0  0  0  0  0
   15.5700    5.7830  -21.2670 O   0  0  0  0  0  1  0  0  0  0  0  0
  1  2  1  0
  1 13  1  0
  1 29  1  0
  2  3  1  0
  3  5  1  0
  4 12  1  0
  4 27  1  0
  4 30  1  0
  5  6  1  0
  6  7  1  0
  7  8  1  0
  8  9  1  0
  9 10  1  0
 10 11  1  0
 11 30  1  0
 11 33  1  0
 12 31  1  0
 12 35  1  0
 14 15  1  0
 14 25  1  0
 14 34  1  0
 15 32  1  0
 16 17  1  0
 16 32  1  0
 17 18  1  0
 17 22  1  0
 18 19  1  0
 19 20  1  0
 19 23  1  0
 20 21  1  0
 21 22  1  0
 23 24  1  0
 23 26  1  0
 25 29  1  0
 25 31  1  0
 28 30  1  0
M  END
$$$$
