3h0b_B_B35_449
     RDKit          3D

 28 30  0  0  0  0  0  0  0  0999 V2000
   35.6330   48.7640   12.2090 C   0  0  0  0  0  3  0  0  0  0  0  0
   35.8960   47.4870   11.7300 C   0  0  0  0  0  3  0  0  0  0  0  0
   30.2000   48.2900   14.7710 C   0  0  0  0  0  3  0  0  0  0  0  0
   28.8950   47.9200   14.4640 C   0  0  0  0  0  2  0  0  0  0  0  0
   27.8280   48.5320   15.1160 C   0  0  0  0  0  3  0  0  0  0  0  0
   28.0620   49.5200   16.0710 C   0  0  0  0  0  2  0  0  0  0  0  0
   29.3730   49.8880   16.3680 C   0  0  0  0  0  2  0  0  0  0  0  0
   30.4440   49.2760   15.7190 C   0  0  0  0  0  3  0  0  0  0  0  0
   32.0770   50.4650   17.0020 C   0  0  0  0  0  1  0  0  0  0  0  0
   29.9030   47.9960   10.0720 C   0  0  0  0  0  3  0  0  0  0  0  0
   34.8520   46.5720   11.6860 C   0  0  0  0  0  2  0  0  0  0  0  0
   30.4760   49.8030   11.1840 C   0  0  0  0  0  2  0  0  0  0  0  0
   33.5850   46.9420   12.1100 C   0  0  0  0  0  2  0  0  0  0  0  0
   33.3330   48.2180   12.5900 C   0  0  0  0  0  3  0  0  0  0  0  0
   34.3710   49.1370   12.6350 C   0  0  0  0  0  2  0  0  0  0  0  0
   37.4230   46.0320   10.6290 C   0  0  0  0  0  1  0  0  0  0  0  0
   31.9440   48.5810   13.0340 C   0  0  0  0  0  3  0  0  0  0  0  0
   31.0610   48.7130   11.8210 C   0  0  0  0  0  3  0  0  0  0  0  0
   31.3420   47.6200   14.0550 C   0  0  0  0  0  2  0  0  0  0  0  0
   36.6140   49.6700   12.2670 F   0  0  0  0  0  0  0  0  0  0  0  0
   30.6880   47.6280   11.1080 N   0  0  0  0  0  2  0  0  0  0  0  0
   29.7780   49.3380   10.1250 N   0  0  0  0  0  2  0  0  0  0  0  0
   29.3570   47.1790    9.1600 N   0  0  0  0  0  1  0  0  0  0  0  0
   26.5650   48.1700   14.8210 N   0  0  0  0  0  0  0  0  0  0  0  0
   37.1550   47.2630   11.3520 O   0  0  0  0  0  0  0  0  0  0  0  0
   31.7330   49.5510   15.9300 O   0  0  0  0  0  0  0  0  0  0  0  0
   26.3720   47.0380   14.0350 O   0  0  0  0  0  1  0  0  0  0  0  0
   25.5320   48.9520   15.3260 O   0  0  0  0  0  1  0  0  0  0  0  0
  1  2  1  0
  1 15  1  0
  1 20  1  0
  2 11  1  0
  2 25  1  0
  3  4  1  0
  3  8  1  0
  3 19  1  0
  4  5  1  0
  5  6  1  0
  5 24  1  0
  6  7  1  0
  7  8  1  0
  8 26  1  0
  9 26  1  0
 10 21  1  0
 10 22  1  0
 10 23  1  0
 11 13  1  0
 12 18  1  0
 12 22  1  0
 13 14  1  0
 14 15  1  0
 14 17  1  0
 16 25  1  0
 17 18  1  0
 17 19  1  0
 18 21  1  0
 24 27  1  0
 24 28  1  0
M  END
$$$$
