3h0b_C_B35_449
     RDKit          3D

 28 30  0  0  0  0  0  0  0  0999 V2000
   63.0120    4.4760    4.0560 C   0  0  0  0  0  3  0  0  0  0  0  0
   62.7840    5.4380    3.0810 C   0  0  0  0  0  3  0  0  0  0  0  0
   61.8810    6.8980    9.4240 C   0  0  0  0  0  3  0  0  0  0  0  0
   62.0910    8.0290   10.2070 C   0  0  0  0  0  2  0  0  0  0  0  0
   62.1050    7.9180   11.5930 C   0  0  0  0  0  3  0  0  0  0  0  0
   61.9130    6.6920   12.2150 C   0  0  0  0  0  2  0  0  0  0  0  0
   61.7040    5.5680   11.4290 C   0  0  0  0  0  2  0  0  0  0  0  0
   61.6880    5.6630   10.0410 C   0  0  0  0  0  3  0  0  0  0  0  0
   60.6580    3.5470    9.7340 C   0  0  0  0  0  1  0  0  0  0  0  0
   65.4930    9.3000    6.9880 C   0  0  0  0  0  3  0  0  0  0  0  0
   62.6740    6.7660    3.4820 C   0  0  0  0  0  2  0  0  0  0  0  0
   65.4590    7.4650    8.1970 C   0  0  0  0  0  2  0  0  0  0  0  0
   62.7930    7.1000    4.8290 C   0  0  0  0  0  2  0  0  0  0  0  0
   63.0160    6.1310    5.8050 C   0  0  0  0  0  3  0  0  0  0  0  0
   63.1310    4.8080    5.3980 C   0  0  0  0  0  2  0  0  0  0  0  0
   63.0960    5.8710    0.7650 C   0  0  0  0  0  1  0  0  0  0  0  0
   63.1510    6.5200    7.2620 C   0  0  0  0  0  3  0  0  0  0  0  0
   64.3070    7.4770    7.4150 C   0  0  0  0  0  3  0  0  0  0  0  0
   61.8700    7.0430    7.9190 C   0  0  0  0  0  2  0  0  0  0  0  0
   63.1250    3.1900    3.7050 F   0  0  0  0  0  0  0  0  0  0  0  0
   64.3720    8.6150    6.6910 N   0  0  0  0  0  2  0  0  0  0  0  0
   66.1590    8.5840    7.9180 N   0  0  0  0  0  2  0  0  0  0  0  0
   65.8680   10.4710    6.4570 N   0  0  0  0  0  1  0  0  0  0  0  0
   62.3070    9.0060   12.3450 N   0  0  0  0  0  0  0  0  0  0  0  0
   62.6910    4.9780    1.8340 O   0  0  0  0  0  0  0  0  0  0  0  0
   61.4930    4.6240    9.2330 O   0  0  0  0  0  0  0  0  0  0  0  0
   61.8830   10.2260   11.8320 O   0  0  0  0  0  1  0  0  0  0  0  0
   62.9280    8.8250   13.5760 O   0  0  0  0  0  1  0  0  0  0  0  0
  1  2  1  0
  1 15  1  0
  1 20  1  0
  2 11  1  0
  2 25  1  0
  3  4  1  0
  3  8  1  0
  3 19  1  0
  4  5  1  0
  5  6  1  0
  5 24  1  0
  6  7  1  0
  7  8  1  0
  8 26  1  0
  9 26  1  0
 10 21  1  0
 10 22  1  0
 10 23  1  0
 11 13  1  0
 12 18  1  0
 12 22  1  0
 13 14  1  0
 14 15  1  0
 14 17  1  0
 16 25  1  0
 17 18  1  0
 17 19  1  0
 18 21  1  0
 24 27  1  0
 24 28  1  0
M  END
$$$$
