3hvg_B_EV0_441
     RDKit          3D

 11 11  0  0  0  0  0  0  0  0999 V2000
  -15.3570  -93.3090   11.8410 C   0  0  0  0  0  2  0  0  0  0  0  0
  -17.7650  -95.0030   14.9890 C   0  0  0  0  0  1  0  0  0  0  0  0
  -16.3480  -94.1680   12.1650 C   0  0  0  0  0  3  0  0  0  0  0  0
  -15.6580  -92.1970   10.9250 C   0  0  0  0  0  3  0  0  0  0  0  0
  -17.9450  -92.9710   10.7660 C   0  0  0  0  0  3  0  0  0  0  0  0
  -16.1080  -95.3430   13.1080 C   0  0  0  0  0  2  0  0  0  0  0  0
  -17.3820  -95.8720   13.7870 C   0  0  0  0  0  2  0  0  0  0  0  0
  -17.6960  -93.9600   11.5820 N   0  0  0  0  0  2  0  0  0  0  0  0
  -16.9440  -92.0720   10.4220 N   0  0  0  0  0  2  0  0  0  0  0  0
  -19.2150  -92.8250   10.2500 N   0  0  0  0  0  1  0  0  0  0  0  0
  -14.8000  -91.4010   10.6110 O   0  0  0  0  0  1  0  0  0  0  0  0
  1  3  1  0
  1  4  1  0
  2  7  1  0
  3  6  1  0
  3  8  1  0
  4  9  1  0
  4 11  1  0
  5  8  1  0
  5  9  1  0
  5 10  1  0
  6  7  1  0
M  END
$$$$
