3hvg_B_EV0_442
     RDKit          3D

 11 11  0  0  0  0  0  0  0  0999 V2000
  -32.0210 -111.2350   21.6280 C   0  0  0  0  0  2  0  0  0  0  0  0
  -27.6110 -112.1390   21.4660 C   0  0  0  0  0  1  0  0  0  0  0  0
  -31.0640 -110.3450   21.3050 C   0  0  0  0  0  3  0  0  0  0  0  0
  -33.4220 -110.8980   21.3190 C   0  0  0  0  0  3  0  0  0  0  0  0
  -32.7300 -108.7990   20.4000 C   0  0  0  0  0  3  0  0  0  0  0  0
  -29.5760 -110.5750   21.5700 C   0  0  0  0  0  2  0  0  0  0  0  0
  -29.1230 -112.0390   21.7130 C   0  0  0  0  0  2  0  0  0  0  0  0
  -31.4760 -109.0720   20.6580 N   0  0  0  0  0  2  0  0  0  0  0  0
  -33.7290 -109.6930   20.7190 N   0  0  0  0  0  2  0  0  0  0  0  0
  -33.0820 -107.6130   19.8020 N   0  0  0  0  0  1  0  0  0  0  0  0
  -34.3150 -111.6650   21.5830 O   0  0  0  0  0  1  0  0  0  0  0  0
  1  3  1  0
  1  4  1  0
  2  7  1  0
  3  6  1  0
  3  8  1  0
  4  9  1  0
  4 11  1  0
  5  8  1  0
  5  9  1  0
  5 10  1  0
  6  7  1  0
M  END
$$$$
