3hw1_B_EV2_393
     RDKit          3D

 32 56  0  0  0  0  0  0  0  0999 V2000
  -60.7970  -43.2470   35.1300 C   0  0  0  0  0  2  0  0  0  0  0  0
  -60.1080  -41.0300   40.4030 C   0  0  0  0  0  2  0  0  0  0  0  0
  -59.4980  -38.7990   35.9540 C   0  0  0  0  0  6  0  0  0  0  0  0
  -58.9120  -38.5980   35.2940 C   0  0  0  0  0  6  0  0  0  0  0  0
  -55.2820  -37.1110   35.2930 C   0  0  0  0  0  3  0  0  0  0  0  0
  -54.4890  -38.0700   36.6800 C   0  0  0  0  0  3  0  0  0  0  0  0
  -55.0780  -38.1860   38.0560 C   0  0  0  0  0  2  0  0  0  0  0  0
  -54.6220  -38.4520   35.3550 C   0  0  0  0  0  0  0  0  0  0  0  0
  -56.7320  -37.4590   35.0050 C   0  0  0  0  0  3  0  0  0  0  0  0
  -55.6430  -38.2660   35.7080 C   0  0  0  0  0  7  0  0  0  0  0  0
  -56.5350  -38.5750   37.8700 C   0  0  0  0  0  2  0  0  0  0  0  0
  -55.6850  -39.3640   35.9420 C   0  0  0  0  0  0  0  0  0  0  0  0
  -61.7350  -42.4260   34.5180 C   0  0  0  0  0  2  0  0  0  0  0  0
  -61.3880  -40.7400   39.9350 C   0  0  0  0  0  2  0  0  0  0  0  0
  -59.6190  -42.7080   35.6300 C   0  0  0  0  0  2  0  0  0  0  0  0
  -58.9910  -40.6920   39.6450 C   0  0  0  0  0  2  0  0  0  0  0  0
  -61.5520  -40.1120   38.7080 C   0  0  0  0  0  2  0  0  0  0  0  0
  -61.5000  -41.0630   34.4060 C   0  0  0  0  0  2  0  0  0  0  0  0
  -59.3820  -41.3440   35.5210 C   0  0  0  0  0  3  0  0  0  0  0  0
  -59.1520  -40.0640   38.4170 C   0  0  0  0  0  3  0  0  0  0  0  0
  -60.4360  -39.7750   37.9550 C   0  0  0  0  0  3  0  0  0  0  0  0
  -60.3270  -40.5210   34.9060 C   0  0  0  0  0  3  0  0  0  0  0  0
  -58.1960  -39.0790   36.4050 C   0  0  0  0  0  7  0  0  0  0  0  0
  -57.9530  -39.4210   35.9150 C   0  0  0  0  0  7  0  0  0  0  0  0
  -57.0100  -38.7600   35.6650 N   0  0  0  0  0  6  0  0  0  0  0  0
  -56.7150  -38.9630   36.4590 N   0  0  0  0  0  6  0  0  0  0  0  0
  -59.8020  -38.1650   34.7290 N   0  0  0  0  0  4  0  0  0  0  0  0
  -58.7690  -37.2040   35.1280 N   0  0  0  0  0  2  0  0  0  0  0  0
  -58.2080  -40.7900   36.0200 N   0  0  0  0  0  0  0  0  0  0  0  0
  -58.0490  -39.7170   37.6420 N   0  0  0  0  0  0  0  0  0  0  0  0
  -60.5950  -39.1480   36.7330 N   0  0  0  0  0  2  0  0  0  0  0  0
  -60.0850  -39.1590   34.7970 N   0  0  0  0  0  4  0  0  0  0  0  0
  1 13  1  0
  1 15  1  0
  2 14  1  0
  2 16  1  0
  3  4  1  0
  3 23  1  0
  3 24  1  0
  3 27  1  0
  3 31  1  0
  3 32  1  0
  4 23  1  0
  4 24  1  0
  4 27  1  0
  4 28  1  0
  4 32  1  0
  5  8  1  0
  5  9  1  0
  5 10  1  0
  6  7  1  0
  6  8  1  0
  6 10  1  0
  7 11  1  0
  8 10  1  0
  8 12  1  0
  9 10  1  0
  9 25  1  0
 10 12  1  0
 10 25  1  0
 10 26  1  0
 11 26  1  0
 12 25  1  0
 12 26  1  0
 13 18  1  0
 14 17  1  0
 15 19  1  0
 16 20  1  0
 17 21  1  0
 18 22  1  0
 19 22  1  0
 19 29  1  0
 20 21  1  0
 20 30  1  0
 21 31  1  0
 22 32  1  0
 23 24  1  0
 23 25  1  0
 23 26  1  0
 23 29  1  0
 23 30  1  0
 24 25  1  0
 24 26  1  0
 24 29  1  0
 24 30  1  0
 25 26  1  0
 27 28  1  0
 27 32  1  0
M  END
$$$$
