3hw1_C_EV2_393
     RDKit          3D

 16 18  0  0  0  0  0  0  0  0999 V2000
  -42.7190  -44.7420   20.7990 C   0  0  0  0  0  2  0  0  0  0  0  0
  -38.2500  -45.8210   22.8190 C   0  0  0  0  0  3  0  0  0  0  0  0
  -36.9440  -43.6620   26.7140 C   0  0  0  0  0  2  0  0  0  0  0  0
  -36.6630  -42.5150   25.7880 C   0  0  0  0  0  2  0  0  0  0  0  0
  -37.7220  -44.6760   25.8870 C   0  0  0  0  0  2  0  0  0  0  0  0
  -36.9610  -43.0310   24.3890 C   0  0  0  0  0  2  0  0  0  0  0  0
  -42.2400  -45.8570   20.1320 C   0  0  0  0  0  2  0  0  0  0  0  0
  -41.9560  -44.1690   21.8170 C   0  0  0  0  0  2  0  0  0  0  0  0
  -41.0080  -46.4000   20.4730 C   0  0  0  0  0  2  0  0  0  0  0  0
  -40.7210  -44.7100   22.1590 C   0  0  0  0  0  3  0  0  0  0  0  0
  -40.2460  -45.8330   21.4800 C   0  0  0  0  0  3  0  0  0  0  0  0
  -38.7130  -44.6890   23.5080 C   0  0  0  0  0  3  0  0  0  0  0  0
  -38.0010  -44.0530   24.5650 N   0  0  0  0  0  0  0  0  0  0  0  0
  -37.0160  -46.4370   23.0950 N   0  0  0  0  0  1  0  0  0  0  0  0
  -39.9540  -44.1500   23.1680 N   0  0  0  0  0  2  0  0  0  0  0  0
  -39.0190  -46.3820   21.8110 N   0  0  0  0  0  2  0  0  0  0  0  0
  1  7  1  0
  1  8  1  0
  2 12  1  0
  2 14  1  0
  2 16  1  0
  3  4  1  0
  3  5  1  0
  4  6  1  0
  5 13  1  0
  6 13  1  0
  7  9  1  0
  8 10  1  0
  9 11  1  0
 10 11  1  0
 10 15  1  0
 11 16  1  0
 12 13  1  0
 12 15  1  0
M  END
$$$$
