3i25_B_MV7_531
     RDKit          3D

 63 66  0  0  0  0  0  0  0  0999 V2000
  -13.5090   17.1270    2.3050 C   0  0  0  0  0  3  0  0  0  0  0  0
  -14.0330   15.3050    1.1310 C   0  0  0  0  0  3  0  0  0  0  0  0
  -13.3230   15.0620   -0.2210 C   0  0  0  0  0  1  0  0  0  0  0  0
  -14.7150   14.0980    1.8200 C   0  0  0  0  0  1  0  0  0  0  0  0
  -15.2540   18.9270    0.6390 C   0  0  0  0  0  3  0  0  0  0  0  0
  -15.4360   19.8700   -0.5180 C   0  0  0  0  0  3  0  0  0  0  0  0
  -13.2110   20.6360   -0.6780 C   0  0  0  0  0  2  0  0  0  0  0  0
  -12.4760   21.9640   -0.6230 C   0  0  0  0  0  2  0  0  0  0  0  0
  -10.7730   20.9860    0.7590 C   0  0  0  0  0  1  0  0  0  0  0  0
  -16.7520   20.5710   -0.5050 C   0  0  0  0  0  2  0  0  0  0  0  0
  -17.8470   19.7850   -1.1570 C   0  0  0  0  0  3  0  0  0  0  0  0
  -12.4630   17.2090    4.5520 C   0  0  0  0  0  2  0  0  0  0  0  0
  -19.1630   19.9590   -0.3450 C   0  0  0  0  0  3  0  0  0  0  0  0
  -20.2220   19.1200   -1.0610 C   0  0  0  0  0  2  0  0  0  0  0  0
  -22.2160   19.7450    0.2610 C   0  0  0  0  0  3  0  0  0  0  0  0
  -21.6790   19.3300    1.5090 C   0  0  0  0  0  2  0  0  0  0  0  0
  -22.3640   19.6430    2.7000 C   0  0  0  0  0  3  0  0  0  0  0  0
  -23.5540   20.3480    2.6680 C   0  0  0  0  0  2  0  0  0  0  0  0
  -24.0580   20.7320    1.4090 C   0  0  0  0  0  3  0  0  0  0  0  0
  -23.4220   20.4450    0.2110 C   0  0  0  0  0  2  0  0  0  0  0  0
  -19.4690   22.1830    0.7360 C   0  0  0  0  0  3  0  0  0  0  0  0
  -20.0550   23.5500    0.6270 C   0  0  0  0  0  3  0  0  0  0  0  0
  -12.9090   18.1210    5.6460 C   0  0  0  0  0  3  0  0  0  0  0  0
  -19.3580   24.6730    1.0200 C   0  0  0  0  0  2  0  0  0  0  0  0
  -19.9160   25.9460    0.8920 C   0  0  0  0  0  3  0  0  0  0  0  0
  -18.2170   26.8890    2.3650 C   0  0  0  0  0  1  0  0  0  0  0  0
  -20.5180   29.3700    1.4010 C   0  0  0  0  0  1  0  0  0  0  0  0
  -21.2240   26.0490    0.4450 C   0  0  0  0  0  2  0  0  0  0  0  0
  -21.3470   23.6580    0.1390 C   0  0  0  0  0  2  0  0  0  0  0  0
  -21.9250   24.9080    0.0600 C   0  0  0  0  0  3  0  0  0  0  0  0
  -23.3140   25.0130   -0.4930 C   0  0  0  0  0  3  0  0  0  0  0  0
  -24.9260   24.1400   -2.1450 C   0  0  0  0  0  3  0  0  0  0  0  0
  -25.4490   22.7050   -2.2140 C   0  0  0  0  0  1  0  0  0  0  0  0
  -13.5190   19.3400    5.3750 C   0  0  0  0  0  2  0  0  0  0  0  0
  -24.7560   24.6700   -3.5280 C   0  0  0  0  0  3  0  0  0  0  0  0
  -23.8520   24.0570   -4.4170 C   0  0  0  0  0  2  0  0  0  0  0  0
  -23.7090   24.5410   -5.7190 C   0  0  0  0  0  2  0  0  0  0  0  0
  -25.4810   25.8010   -3.9330 C   0  0  0  0  0  2  0  0  0  0  0  0
  -25.3260   26.3170   -5.2310 C   0  0  0  0  0  2  0  0  0  0  0  0
  -24.4450   25.6670   -6.1100 C   0  0  0  0  0  2  0  0  0  0  0  0
  -13.9300   20.1610    6.4460 C   0  0  0  0  0  2  0  0  0  0  0  0
  -13.6980   19.7740    7.7750 C   0  0  0  0  0  2  0  0  0  0  0  0
  -13.0730   18.5440    8.0560 C   0  0  0  0  0  2  0  0  0  0  0  0
  -12.6730   17.7250    6.9810 C   0  0  0  0  0  2  0  0  0  0  0  0
  -14.6630   16.6770    1.4590 C   0  0  0  0  0  3  0  0  0  0  0  0
  -21.8720   19.2330    3.8780 F   0  0  0  0  0  0  0  0  0  0  0  0
  -25.2030   21.3800    1.3350 F   0  0  0  0  0  0  0  0  0  0  0  0
  -13.5320   16.8540    3.6410 N   0  0  0  0  0  2  0  0  0  0  0  0
  -14.9130   17.6410    0.3560 N   0  0  0  0  0  2  0  0  0  0  0  0
  -19.6440   21.3450   -0.2910 N   0  0  0  0  0  2  0  0  0  0  0  0
  -19.1740   27.0830    1.2540 N   0  0  0  0  0  0  0  0  0  0  0  0
  -23.6260   24.1500   -1.4770 N   0  0  0  0  0  2  0  0  0  0  0  0
  -12.5410   17.6310    1.7360 O   0  0  0  0  0  1  0  0  0  0  0  0
  -24.0860   25.8650   -0.0780 O   0  0  0  0  0  1  0  0  0  0  0  0
  -15.3630   19.4320    1.7530 O   0  0  0  0  0  1  0  0  0  0  0  0
  -14.5390   20.9460   -0.2970 O   0  0  0  0  0  0  0  0  0  0  0  0
  -11.6300   22.1050    0.5070 O   0  0  0  0  0  0  0  0  0  0  0  0
  -17.9110   20.2010   -2.5210 O   0  0  0  0  0  1  0  0  0  0  0  0
  -21.5730   19.5190   -0.9410 O   0  0  0  0  0  0  0  0  0  0  0  0
  -18.9010   21.8780    1.7670 O   0  0  0  0  0  1  0  0  0  0  0  0
  -19.8640   28.3490   -0.7800 O   0  0  0  0  0  1  0  0  0  0  0  0
  -18.1560   29.2410    0.6950 O   0  0  0  0  0  1  0  0  0  0  0  0
  -19.3580   28.5070    0.5390 S   0  0  0  0  0  4  0  0  0  0  0  0
  1 45  1  0
  1 48  1  0
  1 53  1  0
  2  3  1  0
  2  4  1  0
  2 45  1  0
  5  6  1  0
  5 49  1  0
  5 55  1  0
  6 10  1  0
  6 56  1  0
  7  8  1  0
  7 56  1  0
  8 57  1  0
  9 57  1  0
 10 11  1  0
 11 13  1  0
 11 58  1  0
 12 23  1  0
 12 48  1  0
 13 14  1  0
 13 50  1  0
 14 59  1  0
 15 16  1  0
 15 20  1  0
 15 59  1  0
 16 17  1  0
 17 18  1  0
 17 46  1  0
 18 19  1  0
 19 20  1  0
 19 47  1  0
 21 22  1  0
 21 50  1  0
 21 60  1  0
 22 24  1  0
 22 29  1  0
 23 34  1  0
 23 44  1  0
 24 25  1  0
 25 28  1  0
 25 51  1  0
 26 51  1  0
 27 63  1  0
 28 30  1  0
 29 30  1  0
 30 31  1  0
 31 52  1  0
 31 54  1  0
 32 33  1  0
 32 35  1  0
 32 52  1  0
 34 41  1  0
 35 36  1  0
 35 38  1  0
 36 37  1  0
 37 40  1  0
 38 39  1  0
 39 40  1  0
 41 42  1  0
 42 43  1  0
 43 44  1  0
 45 49  1  0
 51 63  1  0
 61 63  1  0
 62 63  1  0
M  END
$$$$
