3in3_A_472_1
     RDKit          3D

 26 29  0  0  0  0  0  0  0  0999 V2000
   15.9720   -4.3250   17.6750 C   0  0  0  0  0  1  0  0  0  0  0  0
   12.6790   -7.4410   16.5630 C   0  0  0  0  0  3  0  0  0  0  0  0
   11.8600   -8.5390   16.8830 C   0  0  0  0  0  2  0  0  0  0  0  0
   10.4710   -8.4450   16.7690 C   0  0  0  0  0  2  0  0  0  0  0  0
    9.8690   -7.2600   16.3370 C   0  0  0  0  0  2  0  0  0  0  0  0
   10.6530   -6.1450   16.0100 C   0  0  0  0  0  3  0  0  0  0  0  0
   12.0480   -6.2610   16.1320 C   0  0  0  0  0  2  0  0  0  0  0  0
   10.0610   -4.8760   15.5630 C   0  0  0  0  0  3  0  0  0  0  0  0
    9.0300   -4.2530   16.2820 C   0  0  0  0  0  2  0  0  0  0  0  0
    8.4830   -3.0490   15.8410 C   0  0  0  0  0  2  0  0  0  0  0  0
    8.9860   -2.4860   14.6790 C   0  0  0  0  0  2  0  0  0  0  0  0
   14.6420   -6.4050   17.7050 C   0  0  0  0  0  3  0  0  0  0  0  0
   10.4910   -4.2210   14.4100 C   0  0  0  0  0  2  0  0  0  0  0  0
   14.2190   -7.4830   16.6710 C   0  0  0  0  0  0  0  0  0  0  0  0
   15.5100   -5.8790   15.7540 C   0  0  0  0  0  3  0  0  0  0  0  0
   14.7430   -8.8990   16.9680 C   0  0  0  0  0  3  0  0  0  0  0  0
   15.0120   -9.7760   15.9020 C   0  0  0  0  0  2  0  0  0  0  0  0
   15.4850  -11.0510   16.1700 C   0  0  0  0  0  2  0  0  0  0  0  0
   15.4480  -10.6700   18.4340 C   0  0  0  0  0  2  0  0  0  0  0  0
   14.9720   -9.3730   18.2660 C   0  0  0  0  0  2  0  0  0  0  0  0
   15.4020   -5.4950   17.0420 N   0  0  0  0  0  0  0  0  0  0  0  0
   14.9100   -6.9790   15.4300 N   0  0  0  0  0  2  0  0  0  0  0  0
   16.3240   -5.2430   14.8800 N   0  0  0  0  0  1  0  0  0  0  0  0
   15.7070  -11.5170   17.4180 N   0  0  0  0  0  2  0  0  0  0  0  0
    9.9800   -3.0480   13.9520 N   0  0  0  0  0  2  0  0  0  0  0  0
   14.3440   -6.3440   18.8890 O   0  0  0  0  0  1  0  0  0  0  0  0
  1 21  1  0
  2  3  1  0
  2  7  1  0
  2 14  1  0
  3  4  1  0
  4  5  1  0
  5  6  1  0
  6  7  1  0
  6  8  1  0
  8  9  1  0
  8 13  1  0
  9 10  1  0
 10 11  1  0
 11 25  1  0
 12 14  1  0
 12 21  1  0
 12 26  1  0
 13 25  1  0
 14 16  1  0
 14 22  1  0
 15 21  1  0
 15 22  1  0
 15 23  1  0
 16 17  1  0
 16 20  1  0
 17 18  1  0
 18 24  1  0
 19 20  1  0
 19 24  1  0
M  END
$$$$
