3in4_A_BX2_1
     RDKit          3D

 30 33  0  0  0  0  0  0  0  0999 V2000
   16.3090  -13.2410   15.5770 C   0  0  0  0  0  1  0  0  0  0  0  0
   14.2470   -7.3370   16.6190 C   0  0  0  0  0  0  0  0  0  0  0  0
   14.6650   -6.2530   17.6450 C   0  0  0  0  0  3  0  0  0  0  0  0
   15.5450   -5.7480   15.6900 C   0  0  0  0  0  3  0  0  0  0  0  0
   16.0040   -4.1780   17.5850 C   0  0  0  0  0  1  0  0  0  0  0  0
   12.7180   -7.3670   16.5030 C   0  0  0  0  0  3  0  0  0  0  0  0
   11.9360   -8.4980   16.7650 C   0  0  0  0  0  2  0  0  0  0  0  0
   10.5480   -8.4390   16.6340 C   0  0  0  0  0  2  0  0  0  0  0  0
    9.9140   -7.2600   16.2460 C   0  0  0  0  0  2  0  0  0  0  0  0
   10.6620   -6.1100   15.9770 C   0  0  0  0  0  3  0  0  0  0  0  0
   12.0570   -6.1860   16.1130 C   0  0  0  0  0  2  0  0  0  0  0  0
   15.6960  -11.9340   15.0960 C   0  0  0  0  0  2  0  0  0  0  0  0
   10.0240   -4.8560   15.5740 C   0  0  0  0  0  3  0  0  0  0  0  0
   10.4490   -4.1010   14.4970 C   0  0  0  0  0  2  0  0  0  0  0  0
    8.8380   -2.5170   14.8220 C   0  0  0  0  0  2  0  0  0  0  0  0
    8.9370   -4.3070   16.2330 C   0  0  0  0  0  2  0  0  0  0  0  0
   15.4910  -10.9380   16.2090 C   0  0  0  0  0  3  0  0  0  0  0  0
   14.9940   -9.6730   15.9150 C   0  0  0  0  0  2  0  0  0  0  0  0
   14.7990   -8.7380   16.9380 C   0  0  0  0  0  3  0  0  0  0  0  0
   15.1230   -9.1390   18.2420 C   0  0  0  0  0  2  0  0  0  0  0  0
   15.6180  -10.4230   18.4660 C   0  0  0  0  0  3  0  0  0  0  0  0
   15.9700  -10.8660   19.8630 C   0  0  0  0  0  2  0  0  0  0  0  0
   17.4740  -10.9630   20.0690 C   0  0  0  0  0  1  0  0  0  0  0  0
   15.8040  -11.3220   17.4690 N   0  0  0  0  0  2  0  0  0  0  0  0
   15.4290   -5.3490   16.9710 N   0  0  0  0  0  0  0  0  0  0  0  0
   14.8550   -6.7880   15.3480 N   0  0  0  0  0  2  0  0  0  0  0  0
   16.4320   -5.1830   14.8490 N   0  0  0  0  0  1  0  0  0  0  0  0
    9.8820   -2.9390   14.0970 N   0  0  0  0  0  2  0  0  0  0  0  0
    8.3250   -3.1510   15.8840 N   0  0  0  0  0  2  0  0  0  0  0  0
   14.3490   -6.1890   18.8260 O   0  0  0  0  0  1  0  0  0  0  0  0
  1 12  1  0
  2  3  1  0
  2  6  1  0
  2 19  1  0
  2 26  1  0
  3 25  1  0
  3 30  1  0
  4 25  1  0
  4 26  1  0
  4 27  1  0
  5 25  1  0
  6  7  1  0
  6 11  1  0
  7  8  1  0
  8  9  1  0
  9 10  1  0
 10 11  1  0
 10 13  1  0
 12 17  1  0
 13 14  1  0
 13 16  1  0
 14 28  1  0
 15 28  1  0
 15 29  1  0
 16 29  1  0
 17 18  1  0
 17 24  1  0
 18 19  1  0
 19 20  1  0
 20 21  1  0
 21 22  1  0
 21 24  1  0
 22 23  1  0
M  END
$$$$
