3inf_A_X45_1
     RDKit          3D

 29 32  0  0  0  0  0  0  0  0999 V2000
   15.9340  -11.0450   19.3700 C   0  0  0  0  0  1  0  0  0  0  0  0
   14.6700   -6.4780   17.2670 C   0  0  0  0  0  3  0  0  0  0  0  0
   15.5380   -5.8370   15.3300 C   0  0  0  0  0  3  0  0  0  0  0  0
   16.0120   -4.3860   17.3490 C   0  0  0  0  0  1  0  0  0  0  0  0
   12.7050   -7.5400   16.1110 C   0  0  0  0  0  3  0  0  0  0  0  0
   11.9170   -8.6580   16.4350 C   0  0  0  0  0  2  0  0  0  0  0  0
   10.5180   -8.5940   16.3280 C   0  0  0  0  0  2  0  0  0  0  0  0
    9.8750   -7.4250   15.9100 C   0  0  0  0  0  2  0  0  0  0  0  0
   10.6400   -6.2910   15.5810 C   0  0  0  0  0  3  0  0  0  0  0  0
   12.0400   -6.3760   15.6940 C   0  0  0  0  0  2  0  0  0  0  0  0
   10.0500   -5.0160   15.1400 C   0  0  0  0  0  3  0  0  0  0  0  0
   15.7030  -10.5920   17.9530 C   0  0  0  0  0  3  0  0  0  0  0  0
    8.9330   -4.4530   15.7750 C   0  0  0  0  0  2  0  0  0  0  0  0
    8.3990   -3.2400   15.3330 C   0  0  0  0  0  2  0  0  0  0  0  0
    9.0040   -2.6120   14.2550 C   0  0  0  0  0  2  0  0  0  0  0  0
   10.5810   -4.2950   14.0660 C   0  0  0  0  0  2  0  0  0  0  0  0
   15.1160   -9.3370   17.7260 C   0  0  0  0  0  2  0  0  0  0  0  0
   14.8770   -8.8640   16.4280 C   0  0  0  0  0  3  0  0  0  0  0  0
   15.2430   -9.6880   15.3550 C   0  0  0  0  0  2  0  0  0  0  0  0
   15.8290  -10.9440   15.5650 C   0  0  0  0  0  2  0  0  0  0  0  0
   16.0630  -11.4050   16.8620 C   0  0  0  0  0  3  0  0  0  0  0  0
   17.3890  -13.2800   16.1700 C   0  0  0  0  0  1  0  0  0  0  0  0
   14.2410   -7.4860   16.1880 C   0  0  0  0  0  0  0  0  0  0  0  0
   15.4270   -5.5280   16.6520 N   0  0  0  0  0  0  0  0  0  0  0  0
   14.8120   -6.8510   14.9570 N   0  0  0  0  0  2  0  0  0  0  0  0
   16.3280   -5.1020   14.4830 N   0  0  0  0  0  1  0  0  0  0  0  0
   10.0820   -3.1160   13.6120 N   0  0  0  0  0  2  0  0  0  0  0  0
   16.6360  -12.6110   17.1770 O   0  0  0  0  0  0  0  0  0  0  0  0
   14.3490   -6.5030   18.4430 O   0  0  0  0  0  1  0  0  0  0  0  0
  1 12  1  0
  2 23  1  0
  2 24  1  0
  2 29  1  0
  3 24  1  0
  3 25  1  0
  3 26  1  0
  4 24  1  0
  5  6  1  0
  5 10  1  0
  5 23  1  0
  6  7  1  0
  7  8  1  0
  8  9  1  0
  9 10  1  0
  9 11  1  0
 11 13  1  0
 11 16  1  0
 12 17  1  0
 12 21  1  0
 13 14  1  0
 14 15  1  0
 15 27  1  0
 16 27  1  0
 17 18  1  0
 18 19  1  0
 18 23  1  0
 19 20  1  0
 20 21  1  0
 21 28  1  0
 22 28  1  0
 23 25  1  0
M  END
$$$$
