3ixj_C_586_500
     RDKit          3D

 60 63  0  0  0  0  0  0  0  0999 V2000
  -36.2600  -30.8630   28.8410 C   0  0  0  0  0  3  0  0  0  0  0  0
  -40.1560  -26.9780   26.5690 C   0  0  0  0  0  3  0  0  0  0  0  0
  -41.6380  -26.7800   26.2060 C   0  0  0  0  0  1  0  0  0  0  0  0
  -39.3680  -25.7170   26.2150 C   0  0  0  0  0  1  0  0  0  0  0  0
  -40.8580  -28.5480   22.3400 C   0  0  0  0  0  2  0  0  0  0  0  0
  -41.2990  -29.8950   21.8320 C   0  0  0  0  0  3  0  0  0  0  0  0
  -40.5680  -31.0430   22.1170 C   0  0  0  0  0  2  0  0  0  0  0  0
  -40.9960  -32.2840   21.6440 C   0  0  0  0  0  2  0  0  0  0  0  0
  -42.1470  -32.3730   20.8720 C   0  0  0  0  0  2  0  0  0  0  0  0
  -42.8880  -31.2270   20.5770 C   0  0  0  0  0  2  0  0  0  0  0  0
  -42.4560  -29.9870   21.0540 C   0  0  0  0  0  2  0  0  0  0  0  0
  -36.1570  -29.7570   26.5410 C   0  0  0  0  0  3  0  0  0  0  0  0
  -38.0790  -34.0780   31.5810 C   0  0  0  0  0  3  0  0  0  0  0  0
  -39.1820  -34.0330   30.7050 C   0  0  0  0  0  2  0  0  0  0  0  0
  -39.9870  -35.1660   30.5270 C   0  0  0  0  0  3  0  0  0  0  0  0
  -39.7020  -36.3370   31.2060 C   0  0  0  0  0  2  0  0  0  0  0  0
  -38.6190  -36.3680   32.0890 C   0  0  0  0  0  3  0  0  0  0  0  0
  -37.8080  -35.2480   32.2770 C   0  0  0  0  0  2  0  0  0  0  0  0
  -35.2440  -35.4490   28.5230 C   0  0  0  0  0  3  0  0  0  0  0  0
  -36.1580  -34.2650   28.4250 C   0  0  0  0  0  3  0  0  0  0  0  0
  -35.1050  -35.9940   29.7860 C   0  0  0  0  0  2  0  0  0  0  0  0
  -36.0140  -31.0300   27.3430 C   0  0  0  0  0  2  0  0  0  0  0  0
  -34.3010  -37.0920   29.9700 C   0  0  0  0  0  3  0  0  0  0  0  0
  -33.6310  -37.6560   28.9020 C   0  0  0  0  0  2  0  0  0  0  0  0
  -33.7570  -37.1260   27.6210 C   0  0  0  0  0  3  0  0  0  0  0  0
  -34.5910  -36.0180   27.4360 C   0  0  0  0  0  2  0  0  0  0  0  0
  -34.1640  -37.6520   31.3490 C   0  0  0  0  0  3  0  0  0  0  0  0
  -33.9020  -37.2560   33.7630 C   0  0  0  0  0  3  0  0  0  0  0  0
  -32.5140  -36.9440   34.2300 C   0  0  0  0  0  3  0  0  0  0  0  0
  -34.9410  -36.5500   34.6460 C   0  0  0  0  0  1  0  0  0  0  0  0
  -31.6970  -37.9690   34.7090 C   0  0  0  0  0  2  0  0  0  0  0  0
  -30.3910  -37.7010   35.1490 C   0  0  0  0  0  2  0  0  0  0  0  0
  -37.5730  -29.6370   26.0320 C   0  0  0  0  0  3  0  0  0  0  0  0
  -29.8990  -36.3910   35.1160 C   0  0  0  0  0  2  0  0  0  0  0  0
  -30.7090  -35.3640   34.6410 C   0  0  0  0  0  2  0  0  0  0  0  0
  -32.0130  -35.6360   34.2040 C   0  0  0  0  0  2  0  0  0  0  0  0
  -33.6710  -37.5350   25.1730 C   0  0  0  0  0  1  0  0  0  0  0  0
  -32.0380  -40.0940   26.8970 C   0  0  0  0  0  1  0  0  0  0  0  0
  -35.1750  -28.6340   24.6780 C   0  0  0  0  0  1  0  0  0  0  0  0
  -36.8950  -32.1330   29.4340 C   0  0  0  0  0  3  0  0  0  0  0  0
  -37.3470  -31.8590   30.8810 C   0  0  0  0  0  2  0  0  0  0  0  0
  -39.5560  -28.2300   25.9070 C   0  0  0  0  0  3  0  0  0  0  0  0
  -39.5770  -28.1160   24.3860 C   0  0  0  0  0  3  0  0  0  0  0  0
  -38.3460  -37.4930   32.7620 F   0  0  0  0  0  0  0  0  0  0  0  0
  -41.0370  -35.1320   29.7040 F   0  0  0  0  0  0  0  0  0  0  0  0
  -36.0550  -33.3040   29.3770 N   0  0  0  0  0  2  0  0  0  0  0  0
  -38.1960  -28.4940   26.3560 N   0  0  0  0  0  2  0  0  0  0  0  0
  -40.6830  -28.5890   23.7810 N   0  0  0  0  0  2  0  0  0  0  0  0
  -34.0490  -36.8170   32.3840 N   0  0  0  0  0  2  0  0  0  0  0  0
  -33.0720  -37.6870   26.5110 N   0  0  0  0  0  0  0  0  0  0  0  0
  -35.0220  -30.6030   29.5200 O   0  0  0  0  0  1  0  0  0  0  0  0
  -37.2480  -32.9820   31.7550 O   0  0  0  0  0  0  0  0  0  0  0  0
  -38.0760  -30.5410   25.3530 O   0  0  0  0  0  1  0  0  0  0  0  0
  -38.6260  -27.6200   23.7700 O   0  0  0  0  0  1  0  0  0  0  0  0
  -36.9830  -34.2460   27.5230 O   0  0  0  0  0  1  0  0  0  0  0  0
  -34.1630  -38.8640   31.4690 O   0  0  0  0  0  1  0  0  0  0  0  0
  -30.9360  -38.0130   27.7390 O   0  0  0  0  0  1  0  0  0  0  0  0
  -31.0230  -38.3160   25.4100 O   0  0  0  0  0  1  0  0  0  0  0  0
  -35.2640  -29.8380   25.4200 O   0  0  0  0  0  0  0  0  0  0  0  0
  -31.7330  -38.4590   26.6390 S   0  0  0  0  0  4  0  0  0  0  0  0
  1 22  1  0
  1 40  1  0
  1 51  1  0
  2  3  1  0
  2  4  1  0
  2 42  1  0
  5  6  1  0
  5 48  1  0
  6  7  1  0
  6 11  1  0
  7  8  1  0
  8  9  1  0
  9 10  1  0
 10 11  1  0
 12 22  1  0
 12 33  1  0
 12 59  1  0
 13 14  1  0
 13 18  1  0
 13 52  1  0
 14 15  1  0
 15 16  1  0
 15 45  1  0
 16 17  1  0
 17 18  1  0
 17 44  1  0
 19 20  1  0
 19 21  1  0
 19 26  1  0
 20 46  1  0
 20 55  1  0
 21 23  1  0
 23 24  1  0
 23 27  1  0
 24 25  1  0
 25 26  1  0
 25 50  1  0
 27 49  1  0
 27 56  1  0
 28 29  1  0
 28 30  1  0
 28 49  1  0
 29 31  1  0
 29 36  1  0
 31 32  1  0
 32 34  1  0
 33 47  1  0
 33 53  1  0
 34 35  1  0
 35 36  1  0
 37 50  1  0
 38 60  1  0
 39 59  1  0
 40 41  1  0
 40 46  1  0
 41 52  1  0
 42 43  1  0
 42 47  1  0
 43 48  1  0
 43 54  1  0
 50 60  1  0
 57 60  1  0
 58 60  1  0
M  END
$$$$
