3ixj_A_586_500
     RDKit          3D

 60 63  0  0  0  0  0  0  0  0999 V2000
   -2.6530   15.8210   34.8590 C   0  0  0  0  0  3  0  0  0  0  0  0
   -4.5960   15.2560   40.6250 C   0  0  0  0  0  3  0  0  0  0  0  0
   -5.3790   13.9920   40.3310 C   0  0  0  0  0  1  0  0  0  0  0  0
   -5.4030   16.4990   40.3080 C   0  0  0  0  0  1  0  0  0  0  0  0
   -0.7310   15.0590   42.8300 C   0  0  0  0  0  2  0  0  0  0  0  0
    0.5470   15.8620   42.7020 C   0  0  0  0  0  3  0  0  0  0  0  0
    1.3300   15.7520   41.5580 C   0  0  0  0  0  2  0  0  0  0  0  0
    2.5050   16.4970   41.4620 C   0  0  0  0  0  2  0  0  0  0  0  0
    2.8940   17.3550   42.5000 C   0  0  0  0  0  2  0  0  0  0  0  0
    2.1190   17.4640   43.6500 C   0  0  0  0  0  2  0  0  0  0  0  0
    0.9510   16.7070   43.7500 C   0  0  0  0  0  2  0  0  0  0  0  0
   -1.9770   14.0960   36.5700 C   0  0  0  0  0  3  0  0  0  0  0  0
   -2.3150   20.0760   33.0610 C   0  0  0  0  0  3  0  0  0  0  0  0
   -1.9350   20.4780   34.3500 C   0  0  0  0  0  2  0  0  0  0  0  0
   -1.1120   21.6000   34.5380 C   0  0  0  0  0  3  0  0  0  0  0  0
   -0.6820   22.3320   33.4380 C   0  0  0  0  0  2  0  0  0  0  0  0
   -1.0660   21.9420   32.1600 C   0  0  0  0  0  3  0  0  0  0  0  0
   -1.8720   20.8150   31.9620 C   0  0  0  0  0  2  0  0  0  0  0  0
    1.1060   17.4030   32.5090 C   0  0  0  0  0  3  0  0  0  0  0  0
    0.1370   17.4050   33.6470 C   0  0  0  0  0  3  0  0  0  0  0  0
    0.7520   18.1300   31.3750 C   0  0  0  0  0  2  0  0  0  0  0  0
   -1.5080   15.0400   35.4630 C   0  0  0  0  0  2  0  0  0  0  0  0
    1.6140   18.1860   30.2990 C   0  0  0  0  0  3  0  0  0  0  0  0
    2.8360   17.5190   30.3370 C   0  0  0  0  0  2  0  0  0  0  0  0
    3.2110   16.7870   31.4680 C   0  0  0  0  0  3  0  0  0  0  0  0
    2.3420   16.7470   32.5640 C   0  0  0  0  0  2  0  0  0  0  0  0
    1.1990   18.9610   29.0920 C   0  0  0  0  0  3  0  0  0  0  0  0
   -0.6370   19.7240   27.6540 C   0  0  0  0  0  3  0  0  0  0  0  0
   -0.9310   18.7190   26.5800 C   0  0  0  0  0  3  0  0  0  0  0  0
   -1.8950   20.5030   28.0270 C   0  0  0  0  0  1  0  0  0  0  0  0
   -0.3220   18.8600   25.3370 C   0  0  0  0  0  2  0  0  0  0  0  0
   -0.5700   17.9520   24.3030 C   0  0  0  0  0  2  0  0  0  0  0  0
   -2.0040   14.8110   37.8990 C   0  0  0  0  0  3  0  0  0  0  0  0
   -1.4350   16.8840   24.5290 C   0  0  0  0  0  2  0  0  0  0  0  0
   -2.0500   16.7280   25.7720 C   0  0  0  0  0  2  0  0  0  0  0  0
   -1.7930   17.6330   26.7940 C   0  0  0  0  0  2  0  0  0  0  0  0
    5.0720   16.0290   32.8740 C   0  0  0  0  0  1  0  0  0  0  0  0
    6.2800   16.7130   29.7220 C   0  0  0  0  0  1  0  0  0  0  0  0
   -1.5310   11.9060   37.4240 C   0  0  0  0  0  1  0  0  0  0  0  0
   -2.1950   17.2060   34.3990 C   0  0  0  0  0  3  0  0  0  0  0  0
   -3.4060   18.0160   33.8850 C   0  0  0  0  0  2  0  0  0  0  0  0
   -3.2220   15.3530   39.9600 C   0  0  0  0  0  3  0  0  0  0  0  0
   -2.2420   14.7400   40.9250 C   0  0  0  0  0  3  0  0  0  0  0  0
   -0.6380   22.6530   31.1120 F   0  0  0  0  0  0  0  0  0  0  0  0
   -0.7590   21.9900   35.7820 F   0  0  0  0  0  0  0  0  0  0  0  0
   -1.1570   17.1810   33.3870 N   0  0  0  0  0  2  0  0  0  0  0  0
   -3.1210   14.7480   38.6420 N   0  0  0  0  0  2  0  0  0  0  0  0
   -1.6890   15.5460   41.8430 N   0  0  0  0  0  2  0  0  0  0  0  0
   -0.0990   19.0290   28.8110 N   0  0  0  0  0  2  0  0  0  0  0  0
    4.4580   16.1250   31.5460 N   0  0  0  0  0  0  0  0  0  0  0  0
   -3.2100   15.1370   33.7290 O   0  0  0  0  0  1  0  0  0  0  0  0
   -3.1000   18.9530   32.8520 O   0  0  0  0  0  0  0  0  0  0  0  0
   -1.0040   15.4090   38.2420 O   0  0  0  0  0  1  0  0  0  0  0  0
   -1.9840   13.5420   40.8470 O   0  0  0  0  0  1  0  0  0  0  0  0
    0.5480   17.6370   34.7670 O   0  0  0  0  0  1  0  0  0  0  0  0
    2.0490   19.5020   28.4120 O   0  0  0  0  0  1  0  0  0  0  0  0
    4.3100   15.1950   29.2870 O   0  0  0  0  0  1  0  0  0  0  0  0
    5.9850   14.4100   30.7130 O   0  0  0  0  0  1  0  0  0  0  0  0
   -1.0400   12.9970   36.6410 O   0  0  0  0  0  0  0  0  0  0  0  0
    5.2200   15.5520   30.3150 S   0  0  0  0  0  4  0  0  0  0  0  0
  1 22  1  0
  1 40  1  0
  1 51  1  0
  2  3  1  0
  2  4  1  0
  2 42  1  0
  5  6  1  0
  5 48  1  0
  6  7  1  0
  6 11  1  0
  7  8  1  0
  8  9  1  0
  9 10  1  0
 10 11  1  0
 12 22  1  0
 12 33  1  0
 12 59  1  0
 13 14  1  0
 13 18  1  0
 13 52  1  0
 14 15  1  0
 15 16  1  0
 15 45  1  0
 16 17  1  0
 17 18  1  0
 17 44  1  0
 19 20  1  0
 19 21  1  0
 19 26  1  0
 20 46  1  0
 20 55  1  0
 21 23  1  0
 23 24  1  0
 23 27  1  0
 24 25  1  0
 25 26  1  0
 25 50  1  0
 27 49  1  0
 27 56  1  0
 28 29  1  0
 28 30  1  0
 28 49  1  0
 29 31  1  0
 29 36  1  0
 31 32  1  0
 32 34  1  0
 33 47  1  0
 33 53  1  0
 34 35  1  0
 35 36  1  0
 37 50  1  0
 38 60  1  0
 39 59  1  0
 40 41  1  0
 40 46  1  0
 41 52  1  0
 42 43  1  0
 42 47  1  0
 43 48  1  0
 43 54  1  0
 50 60  1  0
 57 60  1  0
 58 60  1  0
M  END
$$$$
