3ixj_B_586_500
     RDKit          3D

 60 63  0  0  0  0  0  0  0  0999 V2000
  -17.8640   19.9750   -0.8300 C   0  0  0  0  0  3  0  0  0  0  0  0
  -14.1990   15.4330    1.3140 C   0  0  0  0  0  3  0  0  0  0  0  0
  -13.4670   15.2980   -0.0170 C   0  0  0  0  0  1  0  0  0  0  0  0
  -15.3870   14.5100    1.4200 C   0  0  0  0  0  1  0  0  0  0  0  0
  -12.3420   17.3660    4.7810 C   0  0  0  0  0  2  0  0  0  0  0  0
  -12.8420   18.2380    5.9110 C   0  0  0  0  0  3  0  0  0  0  0  0
  -13.5200   19.4270    5.6530 C   0  0  0  0  0  2  0  0  0  0  0  0
  -13.9670   20.2180    6.7140 C   0  0  0  0  0  2  0  0  0  0  0  0
  -13.7380   19.8260    8.0410 C   0  0  0  0  0  2  0  0  0  0  0  0
  -13.0510   18.6390    8.3060 C   0  0  0  0  0  2  0  0  0  0  0  0
  -12.6010   17.8540    7.2370 C   0  0  0  0  0  2  0  0  0  0  0  0
  -15.3900   19.9990   -0.2180 C   0  0  0  0  0  3  0  0  0  0  0  0
  -22.2930   20.1610    0.5670 C   0  0  0  0  0  3  0  0  0  0  0  0
  -21.8060   19.6500    1.7820 C   0  0  0  0  0  2  0  0  0  0  0  0
  -22.4650   19.8790    2.9930 C   0  0  0  0  0  3  0  0  0  0  0  0
  -23.6340   20.6300    3.0090 C   0  0  0  0  0  2  0  0  0  0  0  0
  -24.1340   21.1240    1.7970 C   0  0  0  0  0  3  0  0  0  0  0  0
  -23.4640   20.9100    0.5910 C   0  0  0  0  0  2  0  0  0  0  0  0
  -19.9690   23.8550    0.8350 C   0  0  0  0  0  3  0  0  0  0  0  0
  -19.4320   22.4680    0.9540 C   0  0  0  0  0  3  0  0  0  0  0  0
  -21.2690   23.9730    0.3490 C   0  0  0  0  0  2  0  0  0  0  0  0
  -16.7270   20.6960   -0.1180 C   0  0  0  0  0  2  0  0  0  0  0  0
  -21.8670   25.2110    0.2230 C   0  0  0  0  0  3  0  0  0  0  0  0
  -21.1530   26.3600    0.5840 C   0  0  0  0  0  2  0  0  0  0  0  0
  -19.8380   26.2690    1.0400 C   0  0  0  0  0  3  0  0  0  0  0  0
  -19.2570   24.9980    1.1780 C   0  0  0  0  0  2  0  0  0  0  0  0
  -23.2720   25.2940   -0.3220 C   0  0  0  0  0  3  0  0  0  0  0  0
  -24.9250   24.4230   -1.9740 C   0  0  0  0  0  3  0  0  0  0  0  0
  -24.8190   24.9690   -3.3630 C   0  0  0  0  0  3  0  0  0  0  0  0
  -25.4380   22.9890   -1.9890 C   0  0  0  0  0  1  0  0  0  0  0  0
  -25.5710   26.1030   -3.7090 C   0  0  0  0  0  2  0  0  0  0  0  0
  -25.5020   26.6440   -5.0030 C   0  0  0  0  0  2  0  0  0  0  0  0
  -15.1670   19.0960    0.9660 C   0  0  0  0  0  3  0  0  0  0  0  0
  -24.6630   26.0500   -5.9540 C   0  0  0  0  0  2  0  0  0  0  0  0
  -23.9010   24.9270   -5.6060 C   0  0  0  0  0  2  0  0  0  0  0  0
  -23.9780   24.3920   -4.3210 C   0  0  0  0  0  2  0  0  0  0  0  0
  -18.0840   27.2780    2.4710 C   0  0  0  0  0  1  0  0  0  0  0  0
  -20.4280   29.6610    1.6790 C   0  0  0  0  0  1  0  0  0  0  0  0
  -13.1110   20.5130   -0.6850 C   0  0  0  0  0  1  0  0  0  0  0  0
  -19.1870   20.2390   -0.1010 C   0  0  0  0  0  3  0  0  0  0  0  0
  -20.3180   19.3450   -0.6570 C   0  0  0  0  0  2  0  0  0  0  0  0
  -14.5770   16.8500    1.7590 C   0  0  0  0  0  3  0  0  0  0  0  0
  -13.3950   17.2780    2.5810 C   0  0  0  0  0  3  0  0  0  0  0  0
  -25.2520   21.8620    1.7720 F   0  0  0  0  0  0  0  0  0  0  0  0
  -21.9640   19.3500    4.1300 F   0  0  0  0  0  0  0  0  0  0  0  0
  -19.6000   21.6430   -0.0930 N   0  0  0  0  0  2  0  0  0  0  0  0
  -14.8480   17.8230    0.7100 N   0  0  0  0  0  2  0  0  0  0  0  0
  -13.4330   17.0030    3.8900 N   0  0  0  0  0  2  0  0  0  0  0  0
  -23.6210   24.4670   -1.3200 N   0  0  0  0  0  2  0  0  0  0  0  0
  -19.0970   27.4170    1.4150 N   0  0  0  0  0  0  0  0  0  0  0  0
  -17.9530   20.4300   -2.1760 O   0  0  0  0  0  1  0  0  0  0  0  0
  -21.6250   19.9590   -0.6300 O   0  0  0  0  0  0  0  0  0  0  0  0
  -15.2620   19.5700    2.0830 O   0  0  0  0  0  1  0  0  0  0  0  0
  -12.4700   17.8340    2.0030 O   0  0  0  0  0  1  0  0  0  0  0  0
  -18.9050   22.1050    2.0100 O   0  0  0  0  0  1  0  0  0  0  0  0
  -24.0370   26.1090    0.1510 O   0  0  0  0  0  1  0  0  0  0  0  0
  -19.7930   28.6670   -0.5590 O   0  0  0  0  0  1  0  0  0  0  0  0
  -18.1270   29.5650    0.8020 O   0  0  0  0  0  1  0  0  0  0  0  0
  -14.3780   21.0200   -0.2390 O   0  0  0  0  0  0  0  0  0  0  0  0
  -19.3160   28.8060    0.7690 S   0  0  0  0  0  4  0  0  0  0  0  0
  1 22  1  0
  1 40  1  0
  1 51  1  0
  2  3  1  0
  2  4  1  0
  2 42  1  0
  5  6  1  0
  5 48  1  0
  6  7  1  0
  6 11  1  0
  7  8  1  0
  8  9  1  0
  9 10  1  0
 10 11  1  0
 12 22  1  0
 12 33  1  0
 12 59  1  0
 13 14  1  0
 13 18  1  0
 13 52  1  0
 14 15  1  0
 15 16  1  0
 15 45  1  0
 16 17  1  0
 17 18  1  0
 17 44  1  0
 19 20  1  0
 19 21  1  0
 19 26  1  0
 20 46  1  0
 20 55  1  0
 21 23  1  0
 23 24  1  0
 23 27  1  0
 24 25  1  0
 25 26  1  0
 25 50  1  0
 27 49  1  0
 27 56  1  0
 28 29  1  0
 28 30  1  0
 28 49  1  0
 29 31  1  0
 29 36  1  0
 31 32  1  0
 32 34  1  0
 33 47  1  0
 33 53  1  0
 34 35  1  0
 35 36  1  0
 37 50  1  0
 38 60  1  0
 39 59  1  0
 40 41  1  0
 40 46  1  0
 41 52  1  0
 42 43  1  0
 42 47  1  0
 43 48  1  0
 43 54  1  0
 50 60  1  0
 57 60  1  0
 58 60  1  0
M  END
$$$$
