3ixk_B_929_500
     RDKit          3D

 60 63  0  0  0  0  0  0  0  0999 V2000
  -17.7440   20.0960   -0.9630 C   0  0  0  0  0  3  0  0  0  0  0  0
  -13.9970   15.4210    1.4110 C   0  0  0  0  0  3  0  0  0  0  0  0
  -13.2800   15.2230    0.0840 C   0  0  0  0  0  1  0  0  0  0  0  0
  -14.8970   14.2790    1.8340 C   0  0  0  0  0  1  0  0  0  0  0  0
  -12.2050   17.6740    4.7130 C   0  0  0  0  0  2  0  0  0  0  0  0
  -12.5460   18.9610    5.4160 C   0  0  0  0  0  3  0  0  0  0  0  0
  -11.7230   20.0780    5.2370 C   0  0  0  0  0  2  0  0  0  0  0  0
  -12.0170   21.2870    5.8950 C   0  0  0  0  0  2  0  0  0  0  0  0
  -13.1360   21.3560    6.7450 C   0  0  0  0  0  2  0  0  0  0  0  0
  -13.9350   20.2210    6.9560 C   0  0  0  0  0  2  0  0  0  0  0  0
  -13.6330   19.0350    6.2840 C   0  0  0  0  0  2  0  0  0  0  0  0
  -15.2630   19.9670   -0.3610 C   0  0  0  0  0  3  0  0  0  0  0  0
  -21.3790   19.6670    0.8710 C   0  0  0  0  0  2  0  0  0  0  0  0
  -22.4710   20.4350    1.5500 C   0  0  0  0  0  3  0  0  0  0  0  0
  -22.2690   20.6970    2.8820 C   0  0  0  0  0  2  0  0  0  0  0  0
  -23.2230   21.3670    3.6030 C   0  0  0  0  0  3  0  0  0  0  0  0
  -24.3890   21.7920    3.0190 C   0  0  0  0  0  2  0  0  0  0  0  0
  -24.5710   21.5080    1.6800 C   0  0  0  0  0  3  0  0  0  0  0  0
  -23.6240   20.8280    0.9170 C   0  0  0  0  0  2  0  0  0  0  0  0
  -19.8790   23.9240    0.7990 C   0  0  0  0  0  3  0  0  0  0  0  0
  -19.3690   22.5000    0.8210 C   0  0  0  0  0  3  0  0  0  0  0  0
  -21.1680   24.1100    0.3510 C   0  0  0  0  0  2  0  0  0  0  0  0
  -16.5930   20.6860   -0.1660 C   0  0  0  0  0  2  0  0  0  0  0  0
  -21.7320   25.3670    0.2540 C   0  0  0  0  0  3  0  0  0  0  0  0
  -20.9850   26.4930    0.6030 C   0  0  0  0  0  2  0  0  0  0  0  0
  -19.6810   26.3340    1.0580 C   0  0  0  0  0  3  0  0  0  0  0  0
  -19.1230   25.0460    1.1470 C   0  0  0  0  0  2  0  0  0  0  0  0
  -23.1300   25.4180   -0.3140 C   0  0  0  0  0  3  0  0  0  0  0  0
  -24.6760   24.4380   -2.0380 C   0  0  0  0  0  3  0  0  0  0  0  0
  -24.7510   25.0770   -3.3720 C   0  0  0  0  0  3  0  0  0  0  0  0
  -24.9490   22.9520   -2.1570 C   0  0  0  0  0  1  0  0  0  0  0  0
  -25.5290   26.2320   -3.5500 C   0  0  0  0  0  2  0  0  0  0  0  0
  -25.6500   26.8790   -4.7840 C   0  0  0  0  0  2  0  0  0  0  0  0
  -15.0240   19.0560    0.8140 C   0  0  0  0  0  3  0  0  0  0  0  0
  -24.9630   26.3480   -5.8700 C   0  0  0  0  0  2  0  0  0  0  0  0
  -24.1720   25.2130   -5.7080 C   0  0  0  0  0  2  0  0  0  0  0  0
  -24.0600   24.5650   -4.4680 C   0  0  0  0  0  2  0  0  0  0  0  0
  -17.8750   27.3510    2.4000 C   0  0  0  0  0  1  0  0  0  0  0  0
  -20.4010   29.6360    1.6780 C   0  0  0  0  0  1  0  0  0  0  0  0
  -19.1060   20.3150   -0.2740 C   0  0  0  0  0  3  0  0  0  0  0  0
  -20.1080   19.3500   -0.8790 C   0  0  0  0  0  2  0  0  0  0  0  0
  -14.1480   21.0300   -0.3960 C   0  0  0  0  0  1  0  0  0  0  0  0
  -14.4550   16.8340    1.7640 C   0  0  0  0  0  3  0  0  0  0  0  0
  -13.3410   17.4540    2.5500 C   0  0  0  0  0  3  0  0  0  0  0  0
  -25.7260   21.9300    1.1360 F   0  0  0  0  0  0  0  0  0  0  0  0
  -22.9990   21.6090    4.8960 F   0  0  0  0  0  0  0  0  0  0  0  0
  -19.5930   21.7010   -0.2520 N   0  0  0  0  0  2  0  0  0  0  0  0
  -14.7480   17.7400    0.6410 N   0  0  0  0  0  2  0  0  0  0  0  0
  -13.2690   17.2020    3.8610 N   0  0  0  0  0  2  0  0  0  0  0  0
  -23.3960   24.5920   -1.3530 N   0  0  0  0  0  2  0  0  0  0  0  0
  -18.9490   27.5090    1.3950 N   0  0  0  0  0  0  0  0  0  0  0  0
  -17.6950   20.6640   -2.2770 O   0  0  0  0  0  1  0  0  0  0  0  0
  -21.3980   19.7900   -0.5260 O   0  0  0  0  0  0  0  0  0  0  0  0
  -15.0950   19.6070    1.9090 O   0  0  0  0  0  1  0  0  0  0  0  0
  -12.5020   18.0240    1.8730 O   0  0  0  0  0  1  0  0  0  0  0  0
  -18.7390   22.1110    1.8000 O   0  0  0  0  0  1  0  0  0  0  0  0
  -23.9560   26.1910    0.1370 O   0  0  0  0  0  1  0  0  0  0  0  0
  -19.8200   28.6320   -0.5940 O   0  0  0  0  0  1  0  0  0  0  0  0
  -18.0770   29.6840    0.8440 O   0  0  0  0  0  1  0  0  0  0  0  0
  -19.2530   28.8830    0.7220 S   0  0  0  0  0  4  0  0  0  0  0  0
  1 23  1  0
  1 40  1  0
  1 52  1  0
  2  3  1  0
  2  4  1  0
  2 43  1  0
  5  6  1  0
  5 49  1  0
  6  7  1  0
  6 11  1  0
  7  8  1  0
  8  9  1  0
  9 10  1  0
 10 11  1  0
 12 23  1  0
 12 34  1  0
 12 42  1  0
 13 14  1  0
 13 53  1  0
 14 15  1  0
 14 19  1  0
 15 16  1  0
 16 17  1  0
 16 46  1  0
 17 18  1  0
 18 19  1  0
 18 45  1  0
 20 21  1  0
 20 22  1  0
 20 27  1  0
 21 47  1  0
 21 56  1  0
 22 24  1  0
 24 25  1  0
 24 28  1  0
 25 26  1  0
 26 27  1  0
 26 51  1  0
 28 50  1  0
 28 57  1  0
 29 30  1  0
 29 31  1  0
 29 50  1  0
 30 32  1  0
 30 37  1  0
 32 33  1  0
 33 35  1  0
 34 48  1  0
 34 54  1  0
 35 36  1  0
 36 37  1  0
 38 51  1  0
 39 60  1  0
 40 41  1  0
 40 47  1  0
 41 53  1  0
 43 44  1  0
 43 48  1  0
 44 49  1  0
 44 55  1  0
 51 60  1  0
 58 60  1  0
 59 60  1  0
M  END
$$$$
