3ixk_C_929_500
     RDKit          3D

 60 63  0  0  0  0  0  0  0  0999 V2000
  -36.2480  -30.9560   28.9630 C   0  0  0  0  0  3  0  0  0  0  0  0
  -40.0450  -26.9330   25.9620 C   0  0  0  0  0  3  0  0  0  0  0  0
  -39.0710  -25.7900   26.1910 C   0  0  0  0  0  1  0  0  0  0  0  0
  -41.3520  -26.9660   26.7220 C   0  0  0  0  0  1  0  0  0  0  0  0
  -40.5000  -28.8570   22.0770 C   0  0  0  0  0  2  0  0  0  0  0  0
  -41.1050  -30.1310   21.5540 C   0  0  0  0  0  3  0  0  0  0  0  0
  -40.4840  -31.3560   21.8080 C   0  0  0  0  0  2  0  0  0  0  0  0
  -41.0270  -32.5330   21.3040 C   0  0  0  0  0  2  0  0  0  0  0  0
  -42.2060  -32.4630   20.5480 C   0  0  0  0  0  2  0  0  0  0  0  0
  -42.8400  -31.2460   20.2750 C   0  0  0  0  0  2  0  0  0  0  0  0
  -42.2750  -30.0650   20.7790 C   0  0  0  0  0  2  0  0  0  0  0  0
  -36.1000  -29.8530   26.6510 C   0  0  0  0  0  3  0  0  0  0  0  0
  -38.8400  -33.7400   31.3460 C   0  0  0  0  0  2  0  0  0  0  0  0
  -38.8540  -35.2580   31.3190 C   0  0  0  0  0  3  0  0  0  0  0  0
  -39.4660  -35.8900   30.2400 C   0  0  0  0  0  2  0  0  0  0  0  0
  -39.4950  -37.2840   30.2310 C   0  0  0  0  0  3  0  0  0  0  0  0
  -38.9190  -38.0690   31.2240 C   0  0  0  0  0  2  0  0  0  0  0  0
  -38.3230  -37.4230   32.2930 C   0  0  0  0  0  3  0  0  0  0  0  0
  -38.3030  -36.0270   32.3480 C   0  0  0  0  0  2  0  0  0  0  0  0
  -35.1880  -35.6580   28.5980 C   0  0  0  0  0  3  0  0  0  0  0  0
  -36.0910  -34.4350   28.5290 C   0  0  0  0  0  3  0  0  0  0  0  0
  -35.0040  -36.2590   29.8320 C   0  0  0  0  0  2  0  0  0  0  0  0
  -36.0000  -31.1410   27.4600 C   0  0  0  0  0  2  0  0  0  0  0  0
  -34.1890  -37.3910   29.9220 C   0  0  0  0  0  3  0  0  0  0  0  0
  -33.5000  -37.9520   28.8550 C   0  0  0  0  0  2  0  0  0  0  0  0
  -33.6730  -37.3690   27.5880 C   0  0  0  0  0  3  0  0  0  0  0  0
  -34.4930  -36.2160   27.4980 C   0  0  0  0  0  2  0  0  0  0  0  0
  -34.0370  -37.9700   31.2660 C   0  0  0  0  0  3  0  0  0  0  0  0
  -33.9180  -37.4560   33.6990 C   0  0  0  0  0  3  0  0  0  0  0  0
  -32.5640  -37.0460   34.1620 C   0  0  0  0  0  3  0  0  0  0  0  0
  -34.9990  -36.7510   34.5150 C   0  0  0  0  0  1  0  0  0  0  0  0
  -31.6790  -37.9940   34.7050 C   0  0  0  0  0  2  0  0  0  0  0  0
  -30.4010  -37.6710   35.1530 C   0  0  0  0  0  2  0  0  0  0  0  0
  -37.5020  -29.6490   26.0830 C   0  0  0  0  0  3  0  0  0  0  0  0
  -30.0110  -36.3370   35.0640 C   0  0  0  0  0  2  0  0  0  0  0  0
  -30.8810  -35.3860   34.5390 C   0  0  0  0  0  2  0  0  0  0  0  0
  -32.1580  -35.7160   34.0860 C   0  0  0  0  0  2  0  0  0  0  0  0
  -33.5630  -37.6760   25.1420 C   0  0  0  0  0  1  0  0  0  0  0  0
  -31.9520  -40.2540   26.7570 C   0  0  0  0  0  1  0  0  0  0  0  0
  -36.7480  -32.2680   29.5650 C   0  0  0  0  0  3  0  0  0  0  0  0
  -37.2280  -32.0630   30.9910 C   0  0  0  0  0  2  0  0  0  0  0  0
  -35.1020  -29.9090   25.4870 C   0  0  0  0  0  1  0  0  0  0  0  0
  -39.4250  -28.3010   25.6750 C   0  0  0  0  0  3  0  0  0  0  0  0
  -39.3330  -28.4210   24.1910 C   0  0  0  0  0  3  0  0  0  0  0  0
  -37.7960  -38.1850   33.2680 F   0  0  0  0  0  0  0  0  0  0  0  0
  -40.0900  -37.9010   29.2050 F   0  0  0  0  0  0  0  0  0  0  0  0
  -35.9480  -33.4790   29.4670 N   0  0  0  0  0  2  0  0  0  0  0  0
  -38.1020  -28.4610   26.2500 N   0  0  0  0  0  2  0  0  0  0  0  0
  -40.4300  -28.7940   23.5310 N   0  0  0  0  0  2  0  0  0  0  0  0
  -34.0900  -37.1110   32.3010 N   0  0  0  0  0  2  0  0  0  0  0  0
  -32.9540  -37.8830   26.4640 N   0  0  0  0  0  0  0  0  0  0  0  0
  -35.1130  -30.5430   29.7280 O   0  0  0  0  0  1  0  0  0  0  0  0
  -37.5130  -33.3230   31.5810 O   0  0  0  0  0  0  0  0  0  0  0  0
  -38.0490  -30.5720   25.4920 O   0  0  0  0  0  1  0  0  0  0  0  0
  -38.3250  -28.0010   23.6570 O   0  0  0  0  0  1  0  0  0  0  0  0
  -36.8770  -34.3410   27.5740 O   0  0  0  0  0  1  0  0  0  0  0  0
  -33.8310  -39.1690   31.3060 O   0  0  0  0  0  1  0  0  0  0  0  0
  -30.9370  -38.1820   27.8220 O   0  0  0  0  0  1  0  0  0  0  0  0
  -30.8760  -38.4030   25.3760 O   0  0  0  0  0  1  0  0  0  0  0  0
  -31.5970  -38.6180   26.6110 S   0  0  0  0  0  4  0  0  0  0  0  0
  1 23  1  0
  1 40  1  0
  1 52  1  0
  2  3  1  0
  2  4  1  0
  2 43  1  0
  5  6  1  0
  5 49  1  0
  6  7  1  0
  6 11  1  0
  7  8  1  0
  8  9  1  0
  9 10  1  0
 10 11  1  0
 12 23  1  0
 12 34  1  0
 12 42  1  0
 13 14  1  0
 13 53  1  0
 14 15  1  0
 14 19  1  0
 15 16  1  0
 16 17  1  0
 16 46  1  0
 17 18  1  0
 18 19  1  0
 18 45  1  0
 20 21  1  0
 20 22  1  0
 20 27  1  0
 21 47  1  0
 21 56  1  0
 22 24  1  0
 24 25  1  0
 24 28  1  0
 25 26  1  0
 26 27  1  0
 26 51  1  0
 28 50  1  0
 28 57  1  0
 29 30  1  0
 29 31  1  0
 29 50  1  0
 30 32  1  0
 30 37  1  0
 32 33  1  0
 33 35  1  0
 34 48  1  0
 34 54  1  0
 35 36  1  0
 36 37  1  0
 38 51  1  0
 39 60  1  0
 40 41  1  0
 40 47  1  0
 41 53  1  0
 43 44  1  0
 43 48  1  0
 44 49  1  0
 44 55  1  0
 51 60  1  0
 58 60  1  0
 59 60  1  0
M  END
$$$$
