3k5c_C_0BI_387
     RDKit          3D

 42 46  0  0  0  0  0  0  0  0999 V2000
    4.2110  -41.9450   48.5190 C   0  0  0  0  0  3  0  0  0  0  0  0
    3.9240  -42.5880   49.7500 C   0  0  0  0  0  2  0  0  0  0  0  0
    4.8160  -43.5520   50.2720 C   0  0  0  0  0  2  0  0  0  0  0  0
    5.9960  -43.8780   49.5670 C   0  0  0  0  0  2  0  0  0  0  0  0
    3.2650  -40.4870   46.7010 C   0  0  0  0  0  2  0  0  0  0  0  0
    2.8950  -38.9820   46.6850 C   0  0  0  0  0  2  0  0  0  0  0  0
    3.7790  -38.0860   47.5840 C   0  0  0  0  0  2  0  0  0  0  0  0
    5.0850  -37.7030   46.8470 C   0  0  0  0  0  2  0  0  0  0  0  0
    8.8280  -42.8730   48.1860 C   0  0  0  0  0  3  0  0  0  0  0  0
    6.8350  -37.4370   48.6410 C   0  0  0  0  0  3  0  0  0  0  0  0
    7.2750  -38.7870   48.6210 C   0  0  0  0  0  2  0  0  0  0  0  0
    8.2360  -39.2540   49.5500 C   0  0  0  0  0  3  0  0  0  0  0  0
    8.7700  -38.3620   50.5170 C   0  0  0  0  0  2  0  0  0  0  0  0
    8.3420  -37.0130   50.5550 C   0  0  0  0  0  3  0  0  0  0  0  0
    7.3780  -36.5620   49.6160 C   0  0  0  0  0  2  0  0  0  0  0  0
    8.9210  -36.0500   51.6050 C   0  0  0  0  0  2  0  0  0  0  0  0
    9.9660  -34.0490   50.7440 C   0  0  0  0  0  1  0  0  0  0  0  0
    7.5810  -43.5880   47.5720 C   0  0  0  0  0  2  0  0  0  0  0  0
    8.6740  -40.7010   49.4950 C   0  0  0  0  0  3  0  0  0  0  0  0
   10.0920  -43.0230   47.2890 C   0  0  0  0  0  3  0  0  0  0  0  0
   11.3110  -42.2870   47.9070 C   0  0  0  0  0  2  0  0  0  0  0  0
   13.7550  -42.3760   48.0540 C   0  0  0  0  0  0  0  0  0  0  0  0
   15.0370  -42.0980   47.2440 C   0  0  0  0  0  2  0  0  0  0  0  0
   14.3490  -40.9460   48.0090 C   0  0  0  0  0  2  0  0  0  0  0  0
   13.9690  -43.2430   49.3060 C   0  0  0  0  0  3  0  0  0  0  0  0
   14.0560  -44.6460   49.1620 C   0  0  0  0  0  2  0  0  0  0  0  0
   14.2540  -45.4860   50.2900 C   0  0  0  0  0  3  0  0  0  0  0  0
   14.3610  -44.8870   51.5780 C   0  0  0  0  0  2  0  0  0  0  0  0
   14.2750  -43.4840   51.7300 C   0  0  0  0  0  2  0  0  0  0  0  0
   14.0780  -42.6640   50.5960 C   0  0  0  0  0  2  0  0  0  0  0  0
   14.3450  -47.0140   50.0810 C   0  0  0  0  0  3  0  0  0  0  0  0
    6.2940  -43.2390   48.3360 C   0  0  0  0  0  3  0  0  0  0  0  0
   12.9360  -47.6620   50.1510 C   0  0  0  0  0  1  0  0  0  0  0  0
   15.1430  -47.4780   48.8370 C   0  0  0  0  0  1  0  0  0  0  0  0
    5.4000  -42.2740   47.8180 C   0  0  0  0  0  2  0  0  0  0  0  0
    8.5200  -41.4440   48.3570 N   0  0  0  0  0  2  0  0  0  0  0  0
    5.9170  -36.9270   47.7650 N   0  0  0  0  0  2  0  0  0  0  0  0
   12.5700  -42.6160   47.2110 N   0  0  0  0  0  2  0  0  0  0  0  0
    3.2970  -41.0010   48.0410 O   0  0  0  0  0  0  0  0  0  0  0  0
   10.1030  -35.4600   51.0300 O   0  0  0  0  0  0  0  0  0  0  0  0
    9.1680  -41.1830   50.5130 O   0  0  0  0  0  1  0  0  0  0  0  0
   10.4780  -44.4070   47.1890 O   0  0  0  0  0  1  0  0  0  0  0  0
  1  2  1  0
  1 35  1  0
  1 39  1  0
  2  3  1  0
  3  4  1  0
  4 32  1  0
  5  6  1  0
  5 39  1  0
  6  7  1  0
  7  8  1  0
  8 37  1  0
  9 18  1  0
  9 20  1  0
  9 36  1  0
 10 11  1  0
 10 15  1  0
 10 37  1  0
 11 12  1  0
 12 13  1  0
 12 19  1  0
 13 14  1  0
 14 15  1  0
 14 16  1  0
 16 40  1  0
 17 40  1  0
 18 32  1  0
 19 36  1  0
 19 41  1  0
 20 21  1  0
 20 42  1  0
 21 38  1  0
 22 23  1  0
 22 24  1  0
 22 25  1  0
 22 38  1  0
 23 24  1  0
 25 26  1  0
 25 30  1  0
 26 27  1  0
 27 28  1  0
 27 31  1  0
 28 29  1  0
 29 30  1  0
 31 33  1  0
 31 34  1  0
 32 35  1  0
M  END
$$$$
