3k5d_A_XLI_393
     RDKit          3D

 37 36  0  0  0  0  0  0  0  0999 V2000
    3.2040    7.3270   28.8540 C   0  0  0  0  0  3  0  0  0  0  0  0
    1.0610    6.3140   30.9770 C   0  0  0  0  0  3  0  0  0  0  0  0
   -4.4570    2.9680   40.1460 C   0  0  0  0  0  2  0  0  0  0  0  0
   -0.0620    5.4590   34.1780 C   0  0  0  0  0  3  0  0  0  0  0  0
   -5.8970    2.6680   40.6250 C   0  0  0  0  0  2  0  0  0  0  0  0
   -3.1970    4.2820   34.9500 C   0  0  0  0  0  3  0  0  0  0  0  0
   -6.0620    2.8680   42.1560 C   0  0  0  0  0  2  0  0  0  0  0  0
   -3.1640    2.8470   38.0420 C   0  0  0  0  0  3  0  0  0  0  0  0
   -6.0320    4.3670   42.5490 C   0  0  0  0  0  1  0  0  0  0  0  0
    1.1910    7.6010   30.1850 C   0  0  0  0  0  3  0  0  0  0  0  0
    1.0580    5.2230   33.1830 C   0  0  0  0  0  3  0  0  0  0  0  0
   -2.5110    5.6340   34.5730 C   0  0  0  0  0  3  0  0  0  0  0  0
   -3.0600    2.2520   36.6480 C   0  0  0  0  0  3  0  0  0  0  0  0
   -0.1120    8.4700   30.1280 C   0  0  0  0  0  2  0  0  0  0  0  0
    2.3990    4.8730   33.9040 C   0  0  0  0  0  2  0  0  0  0  0  0
   -3.4780    6.6650   33.9230 C   0  0  0  0  0  2  0  0  0  0  0  0
   -2.3110    0.8990   36.7820 C   0  0  0  0  0  1  0  0  0  0  0  0
   -1.0350    7.6270   27.8940 C   0  0  0  0  0  1  0  0  0  0  0  0
   -3.9420    8.9100   32.8690 C   0  0  0  0  0  1  0  0  0  0  0  0
   -2.5450    8.8520   29.4920 C   0  0  0  0  0  1  0  0  0  0  0  0
   -2.4310    8.8390   34.8860 C   0  0  0  0  0  1  0  0  0  0  0  0
    5.6870    6.0000   33.2390 C   0  0  0  0  0  1  0  0  0  0  0  0
   -1.3520    7.8840   29.3890 C   0  0  0  0  0  3  0  0  0  0  0  0
    3.4650    4.3590   32.8960 C   0  0  0  0  0  2  0  0  0  0  0  0
   -2.8680    8.0660   33.6110 C   0  0  0  0  0  3  0  0  0  0  0  0
    3.8210    7.1200   27.5150 C   0  0  0  0  0  1  0  0  0  0  0  0
   -2.3250    3.1700   35.6230 C   0  0  0  0  0  2  0  0  0  0  0  0
    1.8540    7.3650   28.9110 N   0  0  0  0  0  2  0  0  0  0  0  0
    1.1600    6.3920   32.3300 N   0  0  0  0  0  2  0  0  0  0  0  0
   -1.3400    5.4090   33.7120 N   0  0  0  0  0  2  0  0  0  0  0  0
   -4.2310    2.4700   38.7950 N   0  0  0  0  0  2  0  0  0  0  0  0
    3.9620    7.4530   29.8440 O   0  0  0  0  0  1  0  0  0  0  0  0
    0.8770    5.2740   30.3610 O   0  0  0  0  0  1  0  0  0  0  0  0
    0.1940    5.6830   35.3600 O   0  0  0  0  0  1  0  0  0  0  0  0
   -3.9420    3.7700   33.8320 O   0  0  0  0  0  1  0  0  0  0  0  0
   -2.3070    3.6260   38.4360 O   0  0  0  0  0  1  0  0  0  0  0  0
    5.0840    4.3490   33.7130 S   0  0  0  0  0  0  0  0  0  0  0  0
  1 26  1  0
  1 28  1  0
  1 32  1  0
  2 10  1  0
  2 29  1  0
  2 33  1  0
  3  5  1  0
  3 31  1  0
  4 11  1  0
  4 30  1  0
  4 34  1  0
  5  7  1  0
  6 12  1  0
  6 27  1  0
  6 35  1  0
  7  9  1  0
  8 13  1  0
  8 31  1  0
  8 36  1  0
 10 14  1  0
 10 28  1  0
 11 15  1  0
 11 29  1  0
 12 16  1  0
 12 30  1  0
 13 17  1  0
 13 27  1  0
 14 23  1  0
 15 24  1  0
 16 25  1  0
 18 23  1  0
 19 25  1  0
 20 23  1  0
 21 25  1  0
 22 37  1  0
 24 37  1  0
M  END
$$$$
