3k5f_C_AYH_387
     RDKit          3D

 36 37  0  0  0  0  0  0  0  0999 V2000
  -26.1260   15.7290   -0.8930 C   0  0  0  0  0  3  0  0  0  0  0  0
  -27.3090   16.6730   -0.7670 C   0  0  0  0  0  1  0  0  0  0  0  0
  -26.4670   14.7640   -2.0320 C   0  0  0  0  0  3  0  0  0  0  0  0
  -27.3600   12.6320   -2.7250 C   0  0  0  0  0  2  0  0  0  0  0  0
  -27.7550   11.2830   -2.0640 C   0  0  0  0  0  2  0  0  0  0  0  0
  -28.5280   10.3970   -3.0880 C   0  0  0  0  0  2  0  0  0  0  0  0
  -22.3660   15.9990   -1.5680 C   0  0  0  0  0  3  0  0  0  0  0  0
  -27.6030    9.8900   -4.1980 C   0  0  0  0  0  1  0  0  0  0  0  0
  -21.1900   15.1010   -1.1510 C   0  0  0  0  0  2  0  0  0  0  0  0
  -19.8820   15.5780   -1.8220 C   0  0  0  0  0  3  0  0  0  0  0  0
  -19.8090   15.7150   -3.2240 C   0  0  0  0  0  2  0  0  0  0  0  0
  -18.6030   16.1540   -3.8300 C   0  0  0  0  0  2  0  0  0  0  0  0
  -17.4700   16.4460   -3.0280 C   0  0  0  0  0  2  0  0  0  0  0  0
  -17.5660   16.3000   -1.6300 C   0  0  0  0  0  2  0  0  0  0  0  0
  -18.7620   15.8800   -1.0330 C   0  0  0  0  0  2  0  0  0  0  0  0
  -22.2870   18.2100   -2.4810 C   0  0  0  0  0  3  0  0  0  0  0  0
  -23.6440   15.5870   -0.8230 C   0  0  0  0  0  3  0  0  0  0  0  0
  -21.8690   19.6670   -2.3140 C   0  0  0  0  0  3  0  0  0  0  0  0
  -20.3030   19.7050   -2.4290 C   0  0  0  0  0  2  0  0  0  0  0  0
  -19.7540   21.1490   -2.2540 C   0  0  0  0  0  3  0  0  0  0  0  0
  -20.4660   22.1390   -3.2500 C   0  0  0  0  0  2  0  0  0  0  0  0
  -22.0030   22.0770   -3.0900 C   0  0  0  0  0  2  0  0  0  0  0  0
  -22.5030   20.6330   -3.3450 C   0  0  0  0  0  2  0  0  0  0  0  0
  -18.1800   21.1550   -2.4330 C   0  0  0  0  0  0  0  0  0  0  0  0
  -17.7940   20.3800   -0.1430 C   0  0  0  0  0  3  0  0  0  0  0  0
  -17.2060   19.3440    0.7810 C   0  0  0  0  0  1  0  0  0  0  0  0
  -17.7310   20.7100   -3.8560 C   0  0  0  0  0  1  0  0  0  0  0  0
  -17.6060   22.5780   -2.2320 C   0  0  0  0  0  1  0  0  0  0  0  0
  -24.8360   16.4980   -1.2170 C   0  0  0  0  0  2  0  0  0  0  0  0
  -22.0180   17.4010   -1.4310 N   0  0  0  0  0  2  0  0  0  0  0  0
  -26.9890   13.5820   -1.6860 N   0  0  0  0  0  2  0  0  0  0  0  0
  -17.6020   20.2000   -1.4730 N   0  0  0  0  0  2  0  0  0  0  0  0
  -26.2560   15.0820   -3.1920 O   0  0  0  0  0  1  0  0  0  0  0  0
  -22.8350   17.8110   -3.5090 O   0  0  0  0  0  1  0  0  0  0  0  0
  -23.4190   15.6650    0.5990 O   0  0  0  0  0  1  0  0  0  0  0  0
  -18.4130   21.3270    0.3230 O   0  0  0  0  0  1  0  0  0  0  0  0
  1  2  1  0
  1  3  1  0
  1 29  1  0
  3 31  1  0
  3 33  1  0
  4  5  1  0
  4 31  1  0
  5  6  1  0
  6  8  1  0
  7  9  1  0
  7 17  1  0
  7 30  1  0
  9 10  1  0
 10 11  1  0
 10 15  1  0
 11 12  1  0
 12 13  1  0
 13 14  1  0
 14 15  1  0
 16 18  1  0
 16 30  1  0
 16 34  1  0
 17 29  1  0
 17 35  1  0
 18 19  1  0
 18 23  1  0
 19 20  1  0
 20 21  1  0
 20 24  1  0
 21 22  1  0
 22 23  1  0
 24 27  1  0
 24 28  1  0
 24 32  1  0
 25 26  1  0
 25 32  1  0
 25 36  1  0
M  END
$$$$
