3k5f_B_AYH_387
     RDKit          3D

 36 37  0  0  0  0  0  0  0  0999 V2000
   20.0760    7.8040   61.9010 C   0  0  0  0  0  3  0  0  0  0  0  0
   19.2490    6.4940   61.8530 C   0  0  0  0  0  1  0  0  0  0  0  0
   20.1140    8.3250   60.4580 C   0  0  0  0  0  3  0  0  0  0  0  0
   21.2860    8.4990   58.3580 C   0  0  0  0  0  2  0  0  0  0  0  0
   22.6920    8.1890   57.8060 C   0  0  0  0  0  2  0  0  0  0  0  0
   22.6950    8.2580   56.2400 C   0  0  0  0  0  2  0  0  0  0  0  0
   19.8660   11.1940   63.6820 C   0  0  0  0  0  3  0  0  0  0  0  0
   22.5510    9.7090   55.7570 C   0  0  0  0  0  1  0  0  0  0  0  0
   20.9680   12.1930   64.0960 C   0  0  0  0  0  2  0  0  0  0  0  0
   20.3490   13.4740   64.6430 C   0  0  0  0  0  3  0  0  0  0  0  0
   19.4070   14.1980   63.8870 C   0  0  0  0  0  2  0  0  0  0  0  0
   18.8230   15.3750   64.4080 C   0  0  0  0  0  2  0  0  0  0  0  0
   19.2020   15.8470   65.6860 C   0  0  0  0  0  2  0  0  0  0  0  0
   20.1610   15.1270   66.4320 C   0  0  0  0  0  2  0  0  0  0  0  0
   20.7230   13.9410   65.9150 C   0  0  0  0  0  2  0  0  0  0  0  0
   17.5760   11.1350   64.3720 C   0  0  0  0  0  3  0  0  0  0  0  0
   20.4970    9.8700   63.2160 C   0  0  0  0  0  3  0  0  0  0  0  0
   16.5690   11.0400   65.5070 C   0  0  0  0  0  3  0  0  0  0  0  0
   16.6530   12.3730   66.3170 C   0  0  0  0  0  2  0  0  0  0  0  0
   15.6650   12.3800   67.5140 C   0  0  0  0  0  3  0  0  0  0  0  0
   14.2160   12.0350   67.0640 C   0  0  0  0  0  2  0  0  0  0  0  0
   14.1860   10.6680   66.2980 C   0  0  0  0  0  2  0  0  0  0  0  0
   15.1250   10.7540   65.0570 C   0  0  0  0  0  2  0  0  0  0  0  0
   15.7380   13.7750   68.2730 C   0  0  0  0  0  0  0  0  0  0  0  0
   17.7620   13.1610   69.4900 C   0  0  0  0  0  3  0  0  0  0  0  0
   19.2140   13.4660   69.8140 C   0  0  0  0  0  1  0  0  0  0  0  0
   15.2850   14.9630   67.3940 C   0  0  0  0  0  1  0  0  0  0  0  0
   14.7950   13.7650   69.5090 C   0  0  0  0  0  1  0  0  0  0  0  0
   19.4060    8.8380   62.8220 C   0  0  0  0  0  2  0  0  0  0  0  0
   18.8790   11.0680   64.7210 N   0  0  0  0  0  2  0  0  0  0  0  0
   21.1950    8.0180   59.7390 N   0  0  0  0  0  2  0  0  0  0  0  0
   17.1340   14.0230   68.6550 N   0  0  0  0  0  2  0  0  0  0  0  0
   19.1890    8.9880   60.0180 O   0  0  0  0  0  1  0  0  0  0  0  0
   17.2040   11.2600   63.2150 O   0  0  0  0  0  1  0  0  0  0  0  0
   21.3250    9.3370   64.2850 O   0  0  0  0  0  1  0  0  0  0  0  0
   17.2210   12.1740   69.9740 O   0  0  0  0  0  1  0  0  0  0  0  0
  1  2  1  0
  1  3  1  0
  1 29  1  0
  3 31  1  0
  3 33  1  0
  4  5  1  0
  4 31  1  0
  5  6  1  0
  6  8  1  0
  7  9  1  0
  7 17  1  0
  7 30  1  0
  9 10  1  0
 10 11  1  0
 10 15  1  0
 11 12  1  0
 12 13  1  0
 13 14  1  0
 14 15  1  0
 16 18  1  0
 16 30  1  0
 16 34  1  0
 17 29  1  0
 17 35  1  0
 18 19  1  0
 18 23  1  0
 19 20  1  0
 20 21  1  0
 20 24  1  0
 21 22  1  0
 22 23  1  0
 24 27  1  0
 24 28  1  0
 24 32  1  0
 25 26  1  0
 25 32  1  0
 25 36  1  0
M  END
$$$$
