3k5g_B_BJC_387
     RDKit          3D

 41 44  0  0  0  0  0  0  0  0999 V2000
   19.1380    3.3270  -14.7960 C   0  0  0  0  0  2  0  0  0  0  0  0
   18.8970    2.5450  -16.0700 C   0  0  0  0  0  3  0  0  0  0  0  0
   17.5000    1.3320  -17.7950 C   0  0  0  0  0  0  0  0  0  0  0  0
   17.8750    2.3340  -18.9650 C   0  0  0  0  0  3  0  0  0  0  0  0
   16.9850    3.6310  -18.9730 C   0  0  0  0  0  2  0  0  0  0  0  0
   16.4760    2.3500  -15.5790 C   0  0  0  0  0  2  0  0  0  0  0  0
   17.3810    4.6790  -20.0430 C   0  0  0  0  0  3  0  0  0  0  0  0
   17.4950    4.0240  -21.4590 C   0  0  0  0  0  2  0  0  0  0  0  0
   18.4420    2.7830  -21.4530 C   0  0  0  0  0  2  0  0  0  0  0  0
   17.9720    1.7260  -20.4090 C   0  0  0  0  0  2  0  0  0  0  0  0
   16.3850    5.8140  -19.9520 C   0  0  0  0  0  3  0  0  0  0  0  0
   15.6740    7.8200  -18.6260 C   0  0  0  0  0  3  0  0  0  0  0  0
   16.3890    9.1520  -19.0240 C   0  0  0  0  0  3  0  0  0  0  0  0
   16.7260    9.2000  -20.5430 C   0  0  0  0  0  2  0  0  0  0  0  0
   17.1670   10.7530  -22.4540 C   0  0  0  0  0  2  0  0  0  0  0  0
   16.7430    2.8390  -14.1280 C   0  0  0  0  0  2  0  0  0  0  0  0
   15.7160   10.7750  -23.0010 C   0  0  0  0  0  3  0  0  0  0  0  0
   14.7690   11.7040  -22.5090 C   0  0  0  0  0  2  0  0  0  0  0  0
   13.4340   11.7420  -23.0020 C   0  0  0  0  0  3  0  0  0  0  0  0
   13.0620   10.8120  -24.0080 C   0  0  0  0  0  2  0  0  0  0  0  0
   13.9950    9.8740  -24.5130 C   0  0  0  0  0  2  0  0  0  0  0  0
   15.3200    9.8610  -24.0100 C   0  0  0  0  0  2  0  0  0  0  0  0
   12.4250   12.7770  -22.4540 C   0  0  0  0  0  3  0  0  0  0  0  0
   11.7780   12.2350  -21.1660 C   0  0  0  0  0  1  0  0  0  0  0  0
   12.9820   14.2040  -22.2070 C   0  0  0  0  0  1  0  0  0  0  0  0
   15.2760    7.8000  -17.1160 C   0  0  0  0  0  2  0  0  0  0  0  0
   14.5760    6.5270  -16.5820 C   0  0  0  0  0  3  0  0  0  0  0  0
   13.8530    5.6280  -17.4190 C   0  0  0  0  0  2  0  0  0  0  0  0
   13.2240    4.4900  -16.8710 C   0  0  0  0  0  2  0  0  0  0  0  0
   13.3040    4.2280  -15.4790 C   0  0  0  0  0  2  0  0  0  0  0  0
   17.8560    3.9220  -14.1490 C   0  0  0  0  0  2  0  0  0  0  0  0
   14.0210    5.1120  -14.6400 C   0  0  0  0  0  2  0  0  0  0  0  0
   14.6540    6.2510  -15.1910 C   0  0  0  0  0  2  0  0  0  0  0  0
   16.0350    0.7670  -18.0080 C   0  0  0  0  0  1  0  0  0  0  0  0
   18.3640    0.0140  -17.8400 C   0  0  0  0  0  1  0  0  0  0  0  0
   17.6420    2.0790  -16.4800 N   0  0  0  0  0  0  0  0  0  0  0  0
   16.5260    6.6520  -18.8790 N   0  0  0  0  0  2  0  0  0  0  0  0
   17.1990   10.5270  -20.9820 N   0  0  0  0  0  2  0  0  0  0  0  0
   19.9310    2.3670  -16.7070 O   0  0  0  0  0  1  0  0  0  0  0  0
   15.5080    5.9490  -20.8070 O   0  0  0  0  0  1  0  0  0  0  0  0
   15.5540   10.2950  -18.7630 O   0  0  0  0  0  1  0  0  0  0  0  0
  1  2  1  0
  1 31  1  0
  2 36  1  0
  2 39  1  0
  3  4  1  0
  3 34  1  0
  3 35  1  0
  3 36  1  0
  4  5  1  0
  4 10  1  0
  5  7  1  0
  6 16  1  0
  6 36  1  0
  7  8  1  0
  7 11  1  0
  8  9  1  0
  9 10  1  0
 11 37  1  0
 11 40  1  0
 12 13  1  0
 12 26  1  0
 12 37  1  0
 13 14  1  0
 13 41  1  0
 14 38  1  0
 15 17  1  0
 15 38  1  0
 16 31  1  0
 17 18  1  0
 17 22  1  0
 18 19  1  0
 19 20  1  0
 19 23  1  0
 20 21  1  0
 21 22  1  0
 23 24  1  0
 23 25  1  0
 26 27  1  0
 27 28  1  0
 27 33  1  0
 28 29  1  0
 29 30  1  0
 30 32  1  0
 32 33  1  0
M  END
$$$$
