3kmy_B_D8Y_501
     RDKit          3D

 16 17  0  0  0  0  0  0  0  0999 V2000
   21.7510   32.9230   60.3740 C   0  0  0  0  0  2  0  0  0  0  0  0
   19.9160   31.1270   55.1020 C   0  0  0  0  0  2  0  0  0  0  0  0
   20.6980   30.7360   53.9790 C   0  0  0  0  0  2  0  0  0  0  0  0
   21.6040   31.6600   53.3880 C   0  0  0  0  0  3  0  0  0  0  0  0
   21.7380   32.9760   53.9220 C   0  0  0  0  0  2  0  0  0  0  0  0
   21.3490   34.7550   58.9040 C   0  0  0  0  0  3  0  0  0  0  0  0
   22.1710   34.2050   57.9040 C   0  0  0  0  0  3  0  0  0  0  0  0
   22.8050   32.9650   58.1770 C   0  0  0  0  0  2  0  0  0  0  0  0
   22.5980   32.3080   59.4180 C   0  0  0  0  0  2  0  0  0  0  0  0
   22.3680   34.8890   56.5550 C   0  0  0  0  0  2  0  0  0  0  0  0
   21.0980   34.7610   55.6490 C   0  0  0  0  0  2  0  0  0  0  0  0
   20.9590   33.3650   55.0500 C   0  0  0  0  0  3  0  0  0  0  0  0
   20.0450   32.4400   55.6340 C   0  0  0  0  0  2  0  0  0  0  0  0
   22.5360   31.1830   52.0190 Cl  0  0  0  0  0  0  0  0  0  0  0  0
   21.1610   34.1100   60.0910 N   0  0  0  0  0  2  0  0  0  0  0  0
   20.7360   35.9460   58.6950 N   0  0  0  0  0  1  0  0  0  0  0  0
  1  9  1  0
  1 15  1  0
  2  3  1  0
  2 13  1  0
  3  4  1  0
  4  5  1  0
  4 14  1  0
  5 12  1  0
  6  7  1  0
  6 15  1  0
  6 16  1  0
  7  8  1  0
  7 10  1  0
  8  9  1  0
 10 11  1  0
 11 12  1  0
 12 13  1  0
M  END
$$$$
