3kn0_A_3TO_501
     RDKit          3D

 24 26  0  0  0  0  0  0  0  0999 V2000
   22.0640   13.0650   24.7090 C   0  0  0  0  0  2  0  0  0  0  0  0
   24.8960   11.2560   19.5540 C   0  0  0  0  0  3  0  0  0  0  0  0
   24.2390   12.3980   19.0120 C   0  0  0  0  0  2  0  0  0  0  0  0
   22.8550   12.6080   19.2690 C   0  0  0  0  0  2  0  0  0  0  0  0
   22.1300   11.6750   20.0680 C   0  0  0  0  0  2  0  0  0  0  0  0
   26.3650   11.0320   19.2800 C   0  0  0  0  0  2  0  0  0  0  0  0
   29.0830    9.8570   21.4970 C   0  0  0  0  0  3  0  0  0  0  0  0
   28.4780   10.4220   20.2360 C   0  0  0  0  0  2  0  0  0  0  0  0
   28.7620    8.6750   22.0390 C   0  0  0  0  0  2  0  0  0  0  0  0
   29.5820    8.5550   23.2180 C   0  0  0  0  0  2  0  0  0  0  0  0
   30.3080    9.6790   23.2590 C   0  0  0  0  0  2  0  0  0  0  0  0
   22.7520   12.3500   25.7180 C   0  0  0  0  0  2  0  0  0  0  0  0
   27.3070   12.3730   21.0600 C   0  0  0  0  0  1  0  0  0  0  0  0
   22.2990   10.2510   24.6050 C   0  0  0  0  0  3  0  0  0  0  0  0
   21.5950   10.9310   23.5650 C   0  0  0  0  0  3  0  0  0  0  0  0
   21.4890   12.3430   23.6370 C   0  0  0  0  0  2  0  0  0  0  0  0
   20.9650   10.1850   22.3940 C   0  0  0  0  0  2  0  0  0  0  0  0
   22.0360    9.5190   21.4740 C   0  0  0  0  0  2  0  0  0  0  0  0
   22.7890   10.5310   20.6120 C   0  0  0  0  0  3  0  0  0  0  0  0
   24.1710   10.3260   20.3520 C   0  0  0  0  0  2  0  0  0  0  0  0
   22.8530   11.0020   25.6470 N   0  0  0  0  0  2  0  0  0  0  0  0
   22.4330    8.9260   24.5940 N   0  0  0  0  0  1  0  0  0  0  0  0
   27.1590   11.0080   20.5200 N   0  0  0  0  0  0  0  0  0  0  0  0
   30.0320   10.5220   22.2070 O   0  0  0  0  0  0  0  0  0  0  0  0
  1 12  1  0
  1 16  1  0
  2  3  1  0
  2  6  1  0
  2 20  1  0
  3  4  1  0
  4  5  1  0
  5 19  1  0
  6 23  1  0
  7  8  1  0
  7  9  1  0
  7 24  1  0
  8 23  1  0
  9 10  1  0
 10 11  1  0
 11 24  1  0
 12 21  1  0
 13 23  1  0
 14 15  1  0
 14 21  1  0
 14 22  1  0
 15 16  1  0
 15 17  1  0
 17 18  1  0
 18 19  1  0
 19 20  1  0
M  END
$$$$
