3kyr_C_038_500
     RDKit          3D

 52 54  0  0  0  0  0  0  0  0999 V2000
    1.1110  -29.0070   22.2500 C   0  0  0  0  0  3  0  0  0  0  0  0
    2.1690  -26.1200   26.0580 C   0  0  0  0  0  1  0  0  0  0  0  0
   -0.0470  -27.2070   26.2070 C   0  0  0  0  0  1  0  0  0  0  0  0
    0.4500  -30.2970   21.7640 C   0  0  0  0  0  2  0  0  0  0  0  0
    1.2560  -31.5350   22.1200 C   0  0  0  0  0  3  0  0  0  0  0  0
    2.6640  -31.3890   21.5560 C   0  0  0  0  0  1  0  0  0  0  0  0
    0.5440  -32.8200   21.6580 C   0  0  0  0  0  1  0  0  0  0  0  0
    0.1740  -27.9370   21.7840 C   0  0  0  0  0  3  0  0  0  0  0  0
    2.0930  -28.5980   24.4920 C   0  0  0  0  0  3  0  0  0  0  0  0
   -1.3030  -26.8040   18.8370 C   0  0  0  0  0  0  0  0  0  0  0  0
   -0.5140  -26.2670   20.0480 C   0  0  0  0  0  2  0  0  0  0  0  0
   -2.3430  -25.7510   18.3470 C   0  0  0  0  0  2  0  0  0  0  0  0
   -2.5230  -23.7550   16.6070 C   0  0  0  0  0  3  0  0  0  0  0  0
   -2.6140  -22.7890   17.6470 C   0  0  0  0  0  2  0  0  0  0  0  0
   -2.7320  -21.4130   17.3590 C   0  0  0  0  0  2  0  0  0  0  0  0
   -2.7790  -20.9670   16.0250 C   0  0  0  0  0  2  0  0  0  0  0  0
   -2.6960  -21.9010   14.9790 C   0  0  0  0  0  2  0  0  0  0  0  0
   -2.5710  -23.2800   15.2700 C   0  0  0  0  0  2  0  0  0  0  0  0
   -1.9660  -28.1380   19.1090 C   0  0  0  0  0  3  0  0  0  0  0  0
    1.9710  -28.7170   26.0080 C   0  0  0  0  0  3  0  0  0  0  0  0
   -1.8200  -30.3760   18.5560 C   0  0  0  0  0  3  0  0  0  0  0  0
   -1.2190  -31.4390   17.8620 C   0  0  0  0  0  2  0  0  0  0  0  0
   -1.6960  -32.7470   18.0160 C   0  0  0  0  0  2  0  0  0  0  0  0
   -2.9110  -30.5940   19.3930 C   0  0  0  0  0  2  0  0  0  0  0  0
   -3.4050  -31.8780   19.5560 C   0  0  0  0  0  3  0  0  0  0  0  0
   -2.7890  -32.9510   18.8680 C   0  0  0  0  0  2  0  0  0  0  0  0
   -4.5950  -32.0580   20.4820 C   0  0  0  0  0  3  0  0  0  0  0  0
    3.9350  -30.0220   26.3890 C   0  0  0  0  0  3  0  0  0  0  0  0
    5.3520  -30.0710   26.9140 C   0  0  0  0  0  3  0  0  0  0  0  0
   -2.3810  -25.2810   16.8650 C   0  0  0  0  0  2  0  0  0  0  0  0
    6.3520  -29.1620   26.1690 C   0  0  0  0  0  2  0  0  0  0  0  0
    6.3300  -30.3210   23.8980 C   0  0  0  0  0  3  0  0  0  0  0  0
    5.9490  -30.2330   22.4820 C   0  0  0  0  0  3  0  0  0  0  0  0
    1.4330  -27.3700   26.5460 C   0  0  0  0  0  3  0  0  0  0  0  0
    1.1110  -29.0980   23.7260 N   0  0  0  0  0  2  0  0  0  0  0  0
   -1.3610  -29.1110   18.4370 N   0  0  0  0  0  2  0  0  0  0  0  0
    3.2920  -28.9440   26.5520 N   0  0  0  0  0  2  0  0  0  0  0  0
    6.0870  -29.2920   24.7400 N   0  0  0  0  0  2  0  0  0  0  0  0
    5.3890  -29.1660   21.8610 N   0  0  0  0  0  2  0  0  0  0  0  0
    5.1740  -29.5370   20.4990 N   0  0  0  0  0  2  0  0  0  0  0  0
    5.6040  -30.7710   20.3340 N   0  0  0  0  0  2  0  0  0  0  0  0
    6.0960  -31.2470   21.5950 N   0  0  0  0  0  2  0  0  0  0  0  0
    5.8170  -31.4180   26.7450 N   0  0  0  0  0  1  0  0  0  0  0  0
    0.3720  -27.3040   20.6330 N   0  0  0  0  0  2  0  0  0  0  0  0
    6.8500  -31.3880   24.1900 O   0  0  0  0  0  1  0  0  0  0  0  0
    3.4740  -31.0240   25.8460 O   0  0  0  0  0  1  0  0  0  0  0  0
    3.0660  -28.0460   24.0030 O   0  0  0  0  0  1  0  0  0  0  0  0
   -0.8030  -27.6860   22.4800 O   0  0  0  0  0  1  0  0  0  0  0  0
   -0.3350  -27.1500   17.8510 O   0  0  0  0  0  1  0  0  0  0  0  0
   -2.9350  -28.3280   19.8670 O   0  0  0  0  0  1  0  0  0  0  0  0
   -4.8350  -33.2100   20.9660 O   0  0  0  0  0  1  0  0  0  0  0  0
   -5.2990  -31.0170   20.7140 O   0  0  0  0  0  1  0  0  0  0  0  0
  1  4  1  0
  1  8  1  0
  1 35  1  0
  2 34  1  0
  3 34  1  0
  4  5  1  0
  5  6  1  0
  5  7  1  0
  8 44  1  0
  8 48  1  0
  9 20  1  0
  9 35  1  0
  9 47  1  0
 10 11  1  0
 10 12  1  0
 10 19  1  0
 10 49  1  0
 11 44  1  0
 12 30  1  0
 13 14  1  0
 13 18  1  0
 13 30  1  0
 14 15  1  0
 15 16  1  0
 16 17  1  0
 17 18  1  0
 19 36  1  0
 19 50  1  0
 20 34  1  0
 20 37  1  0
 21 22  1  0
 21 24  1  0
 21 36  1  0
 22 23  1  0
 23 26  1  0
 24 25  1  0
 25 26  1  0
 25 27  1  0
 27 51  1  0
 27 52  1  0
 28 29  1  0
 28 37  1  0
 28 46  1  0
 29 31  1  0
 29 43  1  0
 31 38  1  0
 32 33  1  0
 32 38  1  0
 32 45  1  0
 33 39  1  0
 33 42  1  0
 39 40  1  0
 40 41  1  0
 41 42  1  0
M  END
$$$$
