3l58_B_CS5_1
     RDKit          3D

 42 44  0  0  0  0  0  0  0  0999 V2000
   16.1960   29.5390   58.9030 C   0  0  0  0  0  2  0  0  0  0  0  0
   14.3950   28.6230   55.0750 C   0  0  0  0  0  1  0  0  0  0  0  0
   13.1780   31.9720   56.0470 C   0  0  0  0  0  2  0  0  0  0  0  0
   13.3810   33.3590   55.4560 C   0  0  0  0  0  2  0  0  0  0  0  0
   13.8480   34.3630   56.4760 C   0  0  0  0  0  1  0  0  0  0  0  0
   19.6000   32.0740   58.1310 C   0  0  0  0  0  3  0  0  0  0  0  0
   20.3790   34.2730   57.5670 C   0  0  0  0  0  3  0  0  0  0  0  0
   20.8430   35.0770   58.7860 C   0  0  0  0  0  3  0  0  0  0  0  0
   19.9120   35.1940   56.4320 C   0  0  0  0  0  2  0  0  0  0  0  0
   21.5690   34.1640   59.7830 C   0  0  0  0  0  2  0  0  0  0  0  0
   23.0930   34.1870   61.7080 C   0  0  0  0  0  2  0  0  0  0  0  0
   17.4750   29.1890   59.4170 C   0  0  0  0  0  3  0  0  0  0  0  0
   24.2750   33.6340   60.9320 C   0  0  0  0  0  3  0  0  0  0  0  0
   19.3420   34.3710   55.2970 C   0  0  0  0  0  3  0  0  0  0  0  0
   18.0020   34.5920   54.8720 C   0  0  0  0  0  2  0  0  0  0  0  0
   17.4540   33.8130   53.8150 C   0  0  0  0  0  3  0  0  0  0  0  0
   18.2440   32.8090   53.1820 C   0  0  0  0  0  2  0  0  0  0  0  0
   19.5850   32.5870   53.6070 C   0  0  0  0  0  3  0  0  0  0  0  0
   20.1350   33.3710   54.6600 C   0  0  0  0  0  2  0  0  0  0  0  0
   24.5480   32.2400   60.9510 C   0  0  0  0  0  2  0  0  0  0  0  0
   25.6650   31.7180   60.2440 C   0  0  0  0  0  2  0  0  0  0  0  0
   26.5130   32.5850   59.5130 C   0  0  0  0  0  2  0  0  0  0  0  0
   18.5950   30.0340   59.1710 C   0  0  0  0  0  2  0  0  0  0  0  0
   26.2530   33.9820   59.4820 C   0  0  0  0  0  3  0  0  0  0  0  0
   25.1230   34.5010   60.1940 C   0  0  0  0  0  2  0  0  0  0  0  0
   26.4890   35.9570   58.2370 C   0  0  0  0  0  1  0  0  0  0  0  0
   17.6360   27.9590   60.2080 C   0  0  0  0  0  1  0  0  0  0  0  0
   18.4380   31.2290   58.4080 C   0  0  0  0  0  3  0  0  0  0  0  0
   17.1530   31.5840   57.9040 C   0  0  0  0  0  2  0  0  0  0  0  0
   16.0270   30.7420   58.1590 C   0  0  0  0  0  3  0  0  0  0  0  0
   14.6720   31.1430   57.7460 C   0  0  0  0  0  3  0  0  0  0  0  0
   15.3840   30.9270   55.3550 C   0  0  0  0  0  2  0  0  0  0  0  0
   14.7300   29.9360   54.4020 C   0  0  0  0  0  2  0  0  0  0  0  0
   20.3240   31.6320   53.0290 F   0  0  0  0  0  0  0  0  0  0  0  0
   16.1960   34.0260   53.4200 F   0  0  0  0  0  0  0  0  0  0  0  0
   14.4510   31.3460   56.4100 N   0  0  0  0  0  0  0  0  0  0  0  0
   19.3020   33.3730   57.9650 N   0  0  0  0  0  2  0  0  0  0  0  0
   22.1660   34.9810   60.8660 N   0  0  0  0  0  2  0  0  0  0  0  0
   13.7700   31.2930   58.5640 O   0  0  0  0  0  1  0  0  0  0  0  0
   20.7540   31.6500   58.0510 O   0  0  0  0  0  1  0  0  0  0  0  0
   19.6950   35.6490   59.4220 O   0  0  0  0  0  1  0  0  0  0  0  0
   27.1260   34.8150   58.7770 O   0  0  0  0  0  0  0  0  0  0  0  0
  1 12  1  0
  1 30  1  0
  2 33  1  0
  3  4  1  0
  3 36  1  0
  4  5  1  0
  6 28  1  0
  6 37  1  0
  6 40  1  0
  7  8  1  0
  7  9  1  0
  7 37  1  0
  8 10  1  0
  8 41  1  0
  9 14  1  0
 10 38  1  0
 11 13  1  0
 11 38  1  0
 12 23  1  0
 12 27  1  0
 13 20  1  0
 13 25  1  0
 14 15  1  0
 14 19  1  0
 15 16  1  0
 16 17  1  0
 16 35  1  0
 17 18  1  0
 18 19  1  0
 18 34  1  0
 20 21  1  0
 21 22  1  0
 22 24  1  0
 23 28  1  0
 24 25  1  0
 24 42  1  0
 26 42  1  0
 28 29  1  0
 29 30  1  0
 30 31  1  0
 31 36  1  0
 31 39  1  0
 32 33  1  0
 32 36  1  0
M  END
$$$$
