3l5b_B_BDO_455
     RDKit          3D

 20 21  0  0  0  0  0  0  0  0999 V2000
   20.8500   35.3490   58.1350 C   0  0  0  0  0  3  0  0  0  0  0  0
   24.5080   33.2500   61.9050 C   0  0  0  0  0  2  0  0  0  0  0  0
   24.5020   32.5630   60.6550 C   0  0  0  0  0  3  0  0  0  0  0  0
   23.3180   32.5400   59.8630 C   0  0  0  0  0  2  0  0  0  0  0  0
   18.6190   35.1660   55.2210 C   0  0  0  0  0  1  0  0  0  0  0  0
   19.1730   33.0640   53.9280 C   0  0  0  0  0  1  0  0  0  0  0  0
   19.5890   34.0140   55.0480 C   0  0  0  0  0  3  0  0  0  0  0  0
   21.6040   33.5680   57.0950 C   0  0  0  0  0  3  0  0  0  0  0  0
   21.7630   34.7640   56.1540 C   0  0  0  0  0  0  0  0  0  0  0  0
   21.0160   34.5230   54.8380 C   0  0  0  0  0  2  0  0  0  0  0  0
   23.2780   34.9830   55.9540 C   0  0  0  0  0  1  0  0  0  0  0  0
   20.8940   33.2200   59.4570 C   0  0  0  0  0  2  0  0  0  0  0  0
   22.1410   33.2110   60.3150 C   0  0  0  0  0  3  0  0  0  0  0  0
   22.1480   33.8910   61.5690 C   0  0  0  0  0  2  0  0  0  0  0  0
   23.3320   33.9120   62.3620 C   0  0  0  0  0  2  0  0  0  0  0  0
   25.9390   31.7670   60.0920 Cl  0  0  0  0  0  0  0  0  0  0  0  0
   21.1670   35.8550   56.9210 N   0  0  0  0  0  2  0  0  0  0  0  0
   21.0950   34.0260   58.2540 N   0  0  0  0  0  0  0  0  0  0  0  0
   20.3680   36.0760   59.1420 N   0  0  0  0  0  1  0  0  0  0  0  0
   21.9040   32.4060   56.8180 O   0  0  0  0  0  1  0  0  0  0  0  0
  1 17  1  0
  1 18  1  0
  1 19  1  0
  2  3  1  0
  2 15  1  0
  3  4  1  0
  3 16  1  0
  4 13  1  0
  5  7  1  0
  6  7  1  0
  7 10  1  0
  8  9  1  0
  8 18  1  0
  8 20  1  0
  9 10  1  0
  9 11  1  0
  9 17  1  0
 12 13  1  0
 12 18  1  0
 13 14  1  0
 14 15  1  0
M  END
$$$$
