3l5c_A_BDQ_1
     RDKit          3D

 32 34  0  0  0  0  0  0  0  0999 V2000
   21.4880   12.3400   25.1460 C   0  0  0  0  0  0  0  0  0  0  0  0
   22.1110   10.5900   21.1060 C   0  0  0  0  0  3  0  0  0  0  0  0
   23.2850    9.7880   20.9970 C   0  0  0  0  0  2  0  0  0  0  0  0
   24.3090   10.1470   20.0740 C   0  0  0  0  0  2  0  0  0  0  0  0
   24.1650   11.3040   19.2570 C   0  0  0  0  0  3  0  0  0  0  0  0
   22.9890   12.1050   19.3680 C   0  0  0  0  0  2  0  0  0  0  0  0
   21.9650   11.7480   20.2920 C   0  0  0  0  0  2  0  0  0  0  0  0
   25.2630   11.6770   18.2750 C   0  0  0  0  0  2  0  0  0  0  0  0
   25.4000   16.4440   18.7150 C   0  0  0  0  0  3  0  0  0  0  0  0
   24.5830   16.7550   19.8420 C   0  0  0  0  0  2  0  0  0  0  0  0
   26.4300   17.3470   18.3120 C   0  0  0  0  0  2  0  0  0  0  0  0
   21.9300   10.2520   24.4270 C   0  0  0  0  0  3  0  0  0  0  0  0
   24.7930   17.9630   20.5690 C   0  0  0  0  0  2  0  0  0  0  0  0
   26.6410   18.5570   19.0410 C   0  0  0  0  0  2  0  0  0  0  0  0
   25.3610   14.0780   18.5930 C   0  0  0  0  0  3  0  0  0  0  0  0
   25.8230   18.8650   20.1680 C   0  0  0  0  0  3  0  0  0  0  0  0
   26.0340   20.0820   20.9010 C   0  0  0  0  0  2  0  0  0  0  0  0
   20.9650   12.0970   23.7300 C   0  0  0  0  0  3  0  0  0  0  0  0
   22.5400   13.4600   25.0550 C   0  0  0  0  0  1  0  0  0  0  0  0
   20.3320   12.6590   26.0830 C   0  0  0  0  0  2  0  0  0  0  0  0
   19.5980   11.3920   26.5250 C   0  0  0  0  0  3  0  0  0  0  0  0
   18.1060   11.4860   26.2150 C   0  0  0  0  0  1  0  0  0  0  0  0
   19.8800   11.0750   27.9920 C   0  0  0  0  0  1  0  0  0  0  0  0
   21.0240   10.2150   22.0890 C   0  0  0  0  0  2  0  0  0  0  0  0
   22.0970   11.0640   25.4920 N   0  0  0  0  0  2  0  0  0  0  0  0
   21.2800   10.8310   23.3920 N   0  0  0  0  0  0  0  0  0  0  0  0
   22.3640    8.9960   24.3830 N   0  0  0  0  0  1  0  0  0  0  0  0
   25.1190   13.0410   17.7630 N   0  0  0  0  0  2  0  0  0  0  0  0
   25.1980   15.2910   18.0210 N   0  0  0  0  0  2  0  0  0  0  0  0
   26.2010   21.0630   21.4960 N   0  0  0  0  0  1  0  0  0  0  0  0
   20.3700   12.9330   23.0460 O   0  0  0  0  0  1  0  0  0  0  0  0
   25.6990   13.9260   19.7700 O   0  0  0  0  0  1  0  0  0  0  0  0
  1 18  1  0
  1 19  1  0
  1 20  1  0
  1 25  1  0
  2  3  1  0
  2  7  1  0
  2 24  1  0
  3  4  1  0
  4  5  1  0
  5  6  1  0
  5  8  1  0
  6  7  1  0
  8 28  1  0
  9 10  1  0
  9 11  1  0
  9 29  1  0
 10 13  1  0
 11 14  1  0
 12 25  1  0
 12 26  1  0
 12 27  1  0
 13 16  1  0
 14 16  1  0
 15 28  1  0
 15 29  1  0
 15 32  1  0
 16 17  1  0
 17 30  1  0
 18 26  1  0
 18 31  1  0
 20 21  1  0
 21 22  1  0
 21 23  1  0
 24 26  1  0
M  END
$$$$
