3l5c_B_BDQ_1
     RDKit          3D

 32 34  0  0  0  0  0  0  0  0999 V2000
   21.3230   32.6150   59.8490 C   0  0  0  0  0  0  0  0  0  0  0  0
   20.9050   34.3550   55.8100 C   0  0  0  0  0  3  0  0  0  0  0  0
   19.7910   35.2320   55.6920 C   0  0  0  0  0  2  0  0  0  0  0  0
   18.7510   34.9410   54.7680 C   0  0  0  0  0  2  0  0  0  0  0  0
   18.8160   33.7750   53.9570 C   0  0  0  0  0  3  0  0  0  0  0  0
   19.9320   32.8930   54.0730 C   0  0  0  0  0  2  0  0  0  0  0  0
   20.9770   33.1830   55.0010 C   0  0  0  0  0  2  0  0  0  0  0  0
   17.6920   33.4900   52.9810 C   0  0  0  0  0  2  0  0  0  0  0  0
   17.3260   28.7090   52.9130 C   0  0  0  0  0  3  0  0  0  0  0  0
   18.1930   28.1470   53.8920 C   0  0  0  0  0  2  0  0  0  0  0  0
   16.1670   27.9910   52.4880 C   0  0  0  0  0  2  0  0  0  0  0  0
   21.0250   34.7240   59.1070 C   0  0  0  0  0  3  0  0  0  0  0  0
   17.9080   26.8710   54.4540 C   0  0  0  0  0  2  0  0  0  0  0  0
   15.8810   26.7120   53.0510 C   0  0  0  0  0  2  0  0  0  0  0  0
   17.4640   31.0780   53.0660 C   0  0  0  0  0  3  0  0  0  0  0  0
   16.7510   26.1540   54.0330 C   0  0  0  0  0  3  0  0  0  0  0  0
   16.4630   24.8660   54.6010 C   0  0  0  0  0  2  0  0  0  0  0  0
   21.9080   32.8210   58.4580 C   0  0  0  0  0  3  0  0  0  0  0  0
   20.2090   31.5610   59.7030 C   0  0  0  0  0  1  0  0  0  0  0  0
   22.4260   32.2100   60.8260 C   0  0  0  0  0  2  0  0  0  0  0  0
   23.5160   33.2780   60.9380 C   0  0  0  0  0  3  0  0  0  0  0  0
   24.9010   32.6790   60.6770 C   0  0  0  0  0  1  0  0  0  0  0  0
   23.4320   34.0180   62.2760 C   0  0  0  0  0  1  0  0  0  0  0  0
   22.0030   34.6710   56.7990 C   0  0  0  0  0  2  0  0  0  0  0  0
   20.7740   33.9310   60.1730 N   0  0  0  0  0  2  0  0  0  0  0  0
   21.6770   34.0970   58.1020 N   0  0  0  0  0  0  0  0  0  0  0  0
   20.6660   36.0040   59.0350 N   0  0  0  0  0  1  0  0  0  0  0  0
   17.8030   32.1740   52.3590 N   0  0  0  0  0  2  0  0  0  0  0  0
   17.6110   29.9270   52.3800 N   0  0  0  0  0  2  0  0  0  0  0  0
   16.2390   23.8270   55.0650 N   0  0  0  0  0  1  0  0  0  0  0  0
   22.4770   31.9490   57.8000 O   0  0  0  0  0  1  0  0  0  0  0  0
   17.0590   31.1300   54.2360 O   0  0  0  0  0  1  0  0  0  0  0  0
  1 18  1  0
  1 19  1  0
  1 20  1  0
  1 25  1  0
  2  3  1  0
  2  7  1  0
  2 24  1  0
  3  4  1  0
  4  5  1  0
  5  6  1  0
  5  8  1  0
  6  7  1  0
  8 28  1  0
  9 10  1  0
  9 11  1  0
  9 29  1  0
 10 13  1  0
 11 14  1  0
 12 25  1  0
 12 26  1  0
 12 27  1  0
 13 16  1  0
 14 16  1  0
 15 28  1  0
 15 29  1  0
 15 32  1  0
 16 17  1  0
 17 30  1  0
 18 26  1  0
 18 31  1  0
 20 21  1  0
 21 22  1  0
 21 23  1  0
 24 26  1  0
M  END
$$$$
