3l5f_B_BDX_1
     RDKit          3D

 23 25  0  0  0  0  0  0  0  0999 V2000
   21.2490   35.2220   58.1390 C   0  0  0  0  0  3  0  0  0  0  0  0
   20.3630   33.7160   53.1860 C   0  0  0  0  0  2  0  0  0  0  0  0
   22.0370   34.3720   54.9300 C   0  0  0  0  0  2  0  0  0  0  0  0
   24.6200   34.6510   57.8110 C   0  0  0  0  0  2  0  0  0  0  0  0
   26.0820   35.1230   57.8660 C   0  0  0  0  0  3  0  0  0  0  0  0
   26.5830   35.2660   59.3040 C   0  0  0  0  0  2  0  0  0  0  0  0
   28.0370   35.7030   59.3920 C   0  0  0  0  0  2  0  0  0  0  0  0
   28.9280   34.7230   58.6440 C   0  0  0  0  0  2  0  0  0  0  0  0
   28.4950   34.5520   57.1900 C   0  0  0  0  0  2  0  0  0  0  0  0
   27.0010   34.2180   57.0500 C   0  0  0  0  0  2  0  0  0  0  0  0
   20.6950   33.1230   59.3760 C   0  0  0  0  0  1  0  0  0  0  0  0
   22.0480   33.3610   57.2960 C   0  0  0  0  0  3  0  0  0  0  0  0
   22.5070   34.5150   56.3960 C   0  0  0  0  0  0  0  0  0  0  0  0
   24.0410   34.5920   56.4120 C   0  0  0  0  0  2  0  0  0  0  0  0
   20.5790   33.9700   54.6860 C   0  0  0  0  0  3  0  0  0  0  0  0
   19.5670   34.9770   55.2160 C   0  0  0  0  0  2  0  0  0  0  0  0
   18.1260   34.6700   54.8060 C   0  0  0  0  0  2  0  0  0  0  0  0
   17.9860   34.4940   53.2980 C   0  0  0  0  0  2  0  0  0  0  0  0
   18.9150   33.4180   52.7870 C   0  0  0  0  0  2  0  0  0  0  0  0
   21.3100   33.8820   58.3070 N   0  0  0  0  0  0  0  0  0  0  0  0
   21.9160   35.6760   57.0500 N   0  0  0  0  0  2  0  0  0  0  0  0
   20.5840   36.0150   58.9790 N   0  0  0  0  0  1  0  0  0  0  0  0
   22.3280   32.1720   57.1170 O   0  0  0  0  0  1  0  0  0  0  0  0
  1 20  1  0
  1 21  1  0
  1 22  1  0
  2 15  1  0
  2 19  1  0
  3 13  1  0
  3 15  1  0
  4  5  1  0
  4 14  1  0
  5  6  1  0
  5 10  1  0
  6  7  1  0
  7  8  1  0
  8  9  1  0
  9 10  1  0
 11 20  1  0
 12 13  1  0
 12 20  1  0
 12 23  1  0
 13 14  1  0
 13 21  1  0
 15 16  1  0
 16 17  1  0
 17 18  1  0
 18 19  1  0
M  END
$$$$
