3lhg_A_Z81_1
     RDKit          3D

 28 31  0  0  0  0  0  0  0  0999 V2000
   10.4030   -8.5530   16.6750 C   0  0  0  0  0  2  0  0  0  0  0  0
   15.2430  -10.5760   18.5450 C   0  0  0  0  0  2  0  0  0  0  0  0
   15.5010  -10.9770   16.2960 C   0  0  0  0  0  2  0  0  0  0  0  0
   10.5730   -6.2310   15.9950 C   0  0  0  0  0  3  0  0  0  0  0  0
   10.0120   -4.9620   15.5660 C   0  0  0  0  0  3  0  0  0  0  0  0
   12.5600   -7.4870   16.5370 C   0  0  0  0  0  3  0  0  0  0  0  0
   14.6370   -8.8710   17.0090 C   0  0  0  0  0  3  0  0  0  0  0  0
    9.9440   -3.1500   13.9740 C   0  0  0  0  0  3  0  0  0  0  0  0
    9.0210   -4.3270   16.3210 C   0  0  0  0  0  3  0  0  0  0  0  0
   14.4950   -6.3880   17.7090 C   0  0  0  0  0  3  0  0  0  0  0  0
   15.3880   -5.8710   15.7560 C   0  0  0  0  0  3  0  0  0  0  0  0
    9.7940   -7.3590   16.2630 C   0  0  0  0  0  2  0  0  0  0  0  0
   14.0850   -7.4710   16.6850 C   0  0  0  0  0  0  0  0  0  0  0  0
   15.8340   -4.2940   17.6980 C   0  0  0  0  0  1  0  0  0  0  0  0
   11.7950   -8.6260   16.8110 C   0  0  0  0  0  2  0  0  0  0  0  0
    8.9520   -2.5130   14.7290 C   0  0  0  0  0  2  0  0  0  0  0  0
    8.4890   -3.1050   15.9030 C   0  0  0  0  0  2  0  0  0  0  0  0
   14.7450   -9.2980   18.3220 C   0  0  0  0  0  2  0  0  0  0  0  0
   15.0140   -9.7170   15.9690 C   0  0  0  0  0  2  0  0  0  0  0  0
   11.9500   -6.3090   16.1310 C   0  0  0  0  0  2  0  0  0  0  0  0
   10.4810   -4.3740   14.3880 C   0  0  0  0  0  2  0  0  0  0  0  0
   10.3880   -2.5690   12.8550 F   0  0  0  0  0  0  0  0  0  0  0  0
    8.5570   -4.8790   17.4570 F   0  0  0  0  0  0  0  0  0  0  0  0
   15.6220  -11.4310   17.5630 N   0  0  0  0  0  2  0  0  0  0  0  0
   14.6990   -6.9240   15.4370 N   0  0  0  0  0  2  0  0  0  0  0  0
   15.2620   -5.4750   17.0500 N   0  0  0  0  0  0  0  0  0  0  0  0
   16.1690   -5.1750   14.8820 N   0  0  0  0  0  1  0  0  0  0  0  0
   14.1740   -6.3220   18.8820 O   0  0  0  0  0  1  0  0  0  0  0  0
  1 12  1  0
  1 15  1  0
  2 18  1  0
  2 24  1  0
  3 19  1  0
  3 24  1  0
  4  5  1  0
  4 12  1  0
  4 20  1  0
  5  9  1  0
  5 21  1  0
  6 13  1  0
  6 15  1  0
  6 20  1  0
  7 13  1  0
  7 18  1  0
  7 19  1  0
  8 16  1  0
  8 21  1  0
  8 22  1  0
  9 17  1  0
  9 23  1  0
 10 13  1  0
 10 26  1  0
 10 28  1  0
 11 25  1  0
 11 26  1  0
 11 27  1  0
 13 25  1  0
 14 26  1  0
 16 17  1  0
M  END
$$$$
