3msj_C_EV3_393
     RDKit          3D

 15 16  0  0  0  0  0  0  0  0999 V2000
  -60.2200  -41.4540   34.9490 C   0  0  0  0  0  3  0  0  0  0  0  0
  -56.4550  -38.1720   36.5340 C   0  0  0  0  0  2  0  0  0  0  0  0
  -55.5180  -37.8010   35.3790 C   0  0  0  0  0  2  0  0  0  0  0  0
  -54.8910  -36.4190   35.4980 C   0  0  0  0  0  2  0  0  0  0  0  0
  -58.9190  -41.7860   35.3450 C   0  0  0  0  0  2  0  0  0  0  0  0
  -60.6340  -40.1300   34.9550 C   0  0  0  0  0  2  0  0  0  0  0  0
  -58.0260  -40.7910   35.7480 C   0  0  0  0  0  2  0  0  0  0  0  0
  -59.7360  -39.1660   35.3540 C   0  0  0  0  0  3  0  0  0  0  0  0
  -58.4610  -39.4750   35.7440 C   0  0  0  0  0  3  0  0  0  0  0  0
  -58.7600  -37.3570   35.8700 C   0  0  0  0  0  3  0  0  0  0  0  0
  -61.3230  -42.6720   34.4490 Cl  0  0  0  0  0  0  0  0  0  0  0  0
  -58.5680  -35.9870   36.0810 N   0  0  0  0  0  1  0  0  0  0  0  0
  -59.9220  -37.8560   35.4320 N   0  0  0  0  0  2  0  0  0  0  0  0
  -57.8520  -38.3290   36.0700 N   0  0  0  0  0  0  0  0  0  0  0  0
  -54.2670  -36.2640   36.7630 O   0  0  0  0  0  1  0  0  0  0  0  0
  1  5  1  0
  1  6  1  0
  1 11  1  0
  2  3  1  0
  2 14  1  0
  3  4  1  0
  4 15  1  0
  5  7  1  0
  6  8  1  0
  7  9  1  0
  8  9  1  0
  8 13  1  0
  9 14  1  0
 10 12  1  0
 10 13  1  0
 10 14  1  0
M  END
$$$$
