3msj_B_EV3_393
     RDKit          3D

 15 16  0  0  0  0  0  0  0  0999 V2000
  -41.9760  -44.3460   20.8780 C   0  0  0  0  0  3  0  0  0  0  0  0
  -37.2860  -43.3480   22.9670 C   0  0  0  0  0  2  0  0  0  0  0  0
  -37.5310  -42.9710   24.4370 C   0  0  0  0  0  2  0  0  0  0  0  0
  -37.5940  -44.1240   25.4480 C   0  0  0  0  0  2  0  0  0  0  0  0
  -41.4160  -43.0920   21.1610 C   0  0  0  0  0  2  0  0  0  0  0  0
  -41.2620  -45.5120   21.1470 C   0  0  0  0  0  2  0  0  0  0  0  0
  -40.1400  -42.9900   21.7230 C   0  0  0  0  0  2  0  0  0  0  0  0
  -40.0020  -45.3890   21.7000 C   0  0  0  0  0  3  0  0  0  0  0  0
  -39.4470  -44.1650   21.9860 C   0  0  0  0  0  3  0  0  0  0  0  0
  -38.0670  -45.7210   22.5230 C   0  0  0  0  0  3  0  0  0  0  0  0
  -43.5460  -44.4610   20.1880 Cl  0  0  0  0  0  0  0  0  0  0  0  0
  -36.9380  -46.4050   22.9940 N   0  0  0  0  0  1  0  0  0  0  0  0
  -39.1500  -46.3490   22.0370 N   0  0  0  0  0  2  0  0  0  0  0  0
  -38.2300  -44.3850   22.4990 N   0  0  0  0  0  0  0  0  0  0  0  0
  -36.3530  -44.2710   26.1310 O   0  0  0  0  0  1  0  0  0  0  0  0
  1  5  1  0
  1  6  1  0
  1 11  1  0
  2  3  1  0
  2 14  1  0
  3  4  1  0
  4 15  1  0
  5  7  1  0
  6  8  1  0
  7  9  1  0
  8  9  1  0
  8 13  1  0
  9 14  1  0
 10 12  1  0
 10 13  1  0
 10 14  1  0
M  END
$$$$
