3msk_A_EV4_396
     RDKit          3D

 24 26  0  0  0  0  0  0  0  0999 V2000
   16.4360  -40.4020   10.7990 C   0  0  0  0  0  2  0  0  0  0  0  0
   15.3910  -42.2880    8.4970 C   0  0  0  0  0  2  0  0  0  0  0  0
   16.5360  -43.0620    7.8420 C   0  0  0  0  0  2  0  0  0  0  0  0
   17.8880  -42.3610    7.8490 C   0  0  0  0  0  2  0  0  0  0  0  0
   18.5540  -42.6200    9.2120 C   0  0  0  0  0  3  0  0  0  0  0  0
   20.1760  -41.9210   11.0060 C   0  0  0  0  0  1  0  0  0  0  0  0
   19.8440  -40.5630    8.9470 C   0  0  0  0  0  3  0  0  0  0  0  0
   16.1270  -40.0880    9.4680 C   0  0  0  0  0  3  0  0  0  0  0  0
   21.0020  -39.8530    9.6330 C   0  0  0  0  0  2  0  0  0  0  0  0
   21.1580  -38.5200    8.9190 C   0  0  0  0  0  2  0  0  0  0  0  0
   21.2570  -38.6860    7.4070 C   0  0  0  0  0  2  0  0  0  0  0  0
   20.2680  -39.6870    6.7830 C   0  0  0  0  0  2  0  0  0  0  0  0
   20.3040  -40.9910    7.5620 C   0  0  0  0  0  2  0  0  0  0  0  0
   16.2950  -38.6630    8.9940 C   0  0  0  0  0  3  0  0  0  0  0  0
   16.7320  -37.6900    9.8770 C   0  0  0  0  0  2  0  0  0  0  0  0
   17.0050  -38.0750   11.2060 C   0  0  0  0  0  3  0  0  0  0  0  0
   16.8850  -39.3950   11.6600 C   0  0  0  0  0  2  0  0  0  0  0  0
   15.5780  -39.9150    7.4020 C   0  0  0  0  0  3  0  0  0  0  0  0
   17.5870  -36.8000   12.3120 Cl  0  0  0  0  0  0  0  0  0  0  0  0
   15.9450  -38.6290    7.6980 N   0  0  0  0  0  2  0  0  0  0  0  0
   15.1920  -40.2020    6.1240 N   0  0  0  0  0  1  0  0  0  0  0  0
   19.4970  -41.7650    9.7100 N   0  0  0  0  0  0  0  0  0  0  0  0
   15.6600  -40.8290    8.4290 N   0  0  0  0  0  0  0  0  0  0  0  0
   18.2180  -43.6410    9.8190 O   0  0  0  0  0  1  0  0  0  0  0  0
  1  8  1  0
  1 17  1  0
  2  3  1  0
  2 23  1  0
  3  4  1  0
  4  5  1  0
  5 22  1  0
  5 24  1  0
  6 22  1  0
  7  9  1  0
  7 13  1  0
  7 22  1  0
  8 14  1  0
  8 23  1  0
  9 10  1  0
 10 11  1  0
 11 12  1  0
 12 13  1  0
 14 15  1  0
 14 20  1  0
 15 16  1  0
 16 17  1  0
 16 19  1  0
 18 20  1  0
 18 21  1  0
 18 23  1  0
M  END
$$$$
