3n4l_B_842_407
     RDKit          3D

 35 38  0  0  0  0  0  0  0  0999 V2000
   65.1310  -47.3940   21.2520 C   0  0  0  0  0  1  0  0  0  0  0  0
   64.0030  -39.6650   26.1740 C   0  0  0  0  0  2  0  0  0  0  0  0
   63.2040  -40.7950   26.8440 C   0  0  0  0  0  2  0  0  0  0  0  0
   63.8750  -42.1140   26.5310 C   0  0  0  0  0  2  0  0  0  0  0  0
   63.8450  -42.2760   25.0150 C   0  0  0  0  0  2  0  0  0  0  0  0
   66.1620  -41.2530   24.7100 C   0  0  0  0  0  3  0  0  0  0  0  0
   67.0000  -40.1840   24.3350 C   0  0  0  0  0  2  0  0  0  0  0  0
   68.3520  -40.1010   24.6790 C   0  0  0  0  0  3  0  0  0  0  0  0
   68.8750  -41.1670   25.4410 C   0  0  0  0  0  2  0  0  0  0  0  0
   68.0960  -42.2480   25.8350 C   0  0  0  0  0  2  0  0  0  0  0  0
   66.7330  -42.2810   25.4760 C   0  0  0  0  0  2  0  0  0  0  0  0
   66.0420  -46.2180   21.4340 C   0  0  0  0  0  3  0  0  0  0  0  0
   69.5780  -36.9810   23.9400 C   0  0  0  0  0  2  0  0  0  0  0  0
   70.6040  -37.8010   23.4700 C   0  0  0  0  0  2  0  0  0  0  0  0
   70.2590  -39.1230   23.6950 C   0  0  0  0  0  2  0  0  0  0  0  0
   66.5300  -43.9010   18.9990 C   0  0  0  0  0  2  0  0  0  0  0  0
   67.2230  -45.1720   18.5520 C   0  0  0  0  0  3  0  0  0  0  0  0
   68.4530  -45.5520   19.0930 C   0  0  0  0  0  2  0  0  0  0  0  0
   69.0950  -46.7420   18.7030 C   0  0  0  0  0  3  0  0  0  0  0  0
   68.5190  -47.5650   17.7500 C   0  0  0  0  0  2  0  0  0  0  0  0
   67.3030  -47.1940   17.1980 C   0  0  0  0  0  3  0  0  0  0  0  0
   66.6480  -46.0150   17.5940 C   0  0  0  0  0  2  0  0  0  0  0  0
   66.3340  -43.8660   20.5170 C   0  0  0  0  0  3  0  0  0  0  0  0
   65.5880  -42.5690   20.9100 C   0  0  0  0  0  3  0  0  0  0  0  0
   64.8030  -42.6470   22.2130 C   0  0  0  0  0  2  0  0  0  0  0  0
   64.6960  -41.2160   24.2840 C   0  0  0  0  0  0  0  0  0  0  0  0
   64.1250  -39.8470   24.6630 C   0  0  0  0  0  2  0  0  0  0  0  0
   70.2720  -47.1030   19.2520 F   0  0  0  0  0  0  0  0  0  0  0  0
   66.7580  -48.0030   16.2810 F   0  0  0  0  0  0  0  0  0  0  0  0
   69.0620  -39.0480   24.2860 N   0  0  0  0  0  0  0  0  0  0  0  0
   68.5740  -37.7540   24.4680 N   0  0  0  0  0  2  0  0  0  0  0  0
   65.5800  -45.0520   20.9320 N   0  0  0  0  0  2  0  0  0  0  0  0
   64.6350  -41.3480   22.8260 N   0  0  0  0  0  2  0  0  0  0  0  0
   67.1110  -46.3600   22.0260 O   0  0  0  0  0  1  0  0  0  0  0  0
   66.4470  -41.4310   21.0340 O   0  0  0  0  0  1  0  0  0  0  0  0
  1 12  1  0
  2  3  1  0
  2 27  1  0
  3  4  1  0
  4  5  1  0
  5 26  1  0
  6  7  1  0
  6 11  1  0
  6 26  1  0
  7  8  1  0
  8  9  1  0
  8 30  1  0
  9 10  1  0
 10 11  1  0
 12 32  1  0
 12 34  1  0
 13 14  1  0
 13 31  1  0
 14 15  1  0
 15 30  1  0
 16 17  1  0
 16 23  1  0
 17 18  1  0
 17 22  1  0
 18 19  1  0
 19 20  1  0
 19 28  1  0
 20 21  1  0
 21 22  1  0
 21 29  1  0
 23 24  1  0
 23 32  1  0
 24 25  1  0
 24 35  1  0
 25 33  1  0
 26 27  1  0
 26 33  1  0
 30 31  1  0
M  END
$$$$
