3pi5_C_3P5_387
     RDKit          3D

 29 32  0  0  0  0  0  0  0  0999 V2000
    2.9900  -40.7220   47.2040 Br  0  0  0  0  0  0  0  0  0  0  0  0
    7.5470  -43.6300   47.2570 C   0  0  0  0  0  2  0  0  0  0  0  0
    8.7100  -42.8700   47.9620 C   0  0  0  0  0  3  0  0  0  0  0  0
   10.0180  -43.0620   47.1480 C   0  0  0  0  0  3  0  0  0  0  0  0
   11.2470  -42.4890   47.8450 C   0  0  0  0  0  3  0  0  0  0  0  0
    4.1500  -41.9870   47.9690 C   0  0  0  0  0  3  0  0  0  0  0  0
   11.1280  -40.9710   48.0640 C   0  0  0  0  0  2  0  0  0  0  0  0
    8.3880  -41.3830   48.1170 C   0  0  0  0  0  2  0  0  0  0  0  0
    3.7850  -42.6200   49.1650 C   0  0  0  0  0  3  0  0  0  0  0  0
   13.7270  -42.6490   47.6340 C   0  0  0  0  0  2  0  0  0  0  0  0
   13.8980  -43.5340   48.8940 C   0  0  0  0  0  3  0  0  0  0  0  0
   13.7920  -44.9440   48.8480 C   0  0  0  0  0  2  0  0  0  0  0  0
   13.9530  -45.6960   50.0370 C   0  0  0  0  0  3  0  0  0  0  0  0
   14.2220  -45.0420   51.2460 C   0  0  0  0  0  2  0  0  0  0  0  0
    4.6220  -43.5880   49.7100 C   0  0  0  0  0  2  0  0  0  0  0  0
   14.3340  -43.6500   51.2770 C   0  0  0  0  0  2  0  0  0  0  0  0
   14.1660  -42.8970   50.1100 C   0  0  0  0  0  2  0  0  0  0  0  0
   13.8470  -47.2340   50.1090 C   0  0  0  0  0  3  0  0  0  0  0  0
   14.3330  -47.8880   48.8210 C   0  0  0  0  0  2  0  0  0  0  0  0
   12.8380  -47.7620   49.0930 C   0  0  0  0  0  2  0  0  0  0  0  0
    5.8340  -43.9210   49.0920 C   0  0  0  0  0  2  0  0  0  0  0  0
    6.2140  -43.2730   47.9120 C   0  0  0  0  0  3  0  0  0  0  0  0
    5.3720  -42.3040   47.3490 C   0  0  0  0  0  2  0  0  0  0  0  0
   12.4160  -42.8010   46.9770 N   0  0  0  0  0  2  0  0  0  0  0  0
    9.5340  -39.2890   49.2930 O   0  0  0  0  0  1  0  0  0  0  0  0
    9.8780  -41.5190   50.3360 O   0  0  0  0  0  1  0  0  0  0  0  0
   10.2550  -44.4460   46.9310 O   0  0  0  0  0  1  0  0  0  0  0  0
    2.5920  -42.2860   49.8070 O   0  0  0  0  0  1  0  0  0  0  0  0
    9.7330  -40.6830   49.1430 S   0  0  0  0  0  4  0  0  0  0  0  0
  1  6  1  0
  2  3  1  0
  2 22  1  0
  3  4  1  0
  3  8  1  0
  4  5  1  0
  4 27  1  0
  5  7  1  0
  5 24  1  0
  6  9  1  0
  6 23  1  0
  7 29  1  0
  8 29  1  0
  9 15  1  0
  9 28  1  0
 10 11  1  0
 10 24  1  0
 11 12  1  0
 11 17  1  0
 12 13  1  0
 13 14  1  0
 13 18  1  0
 14 16  1  0
 15 21  1  0
 16 17  1  0
 18 19  1  0
 18 20  1  0
 19 20  1  0
 21 22  1  0
 22 23  1  0
 25 29  1  0
 26 29  1  0
M  END
$$$$
