3pi5_B_3P5_387
     RDKit          3D

 29 32  0  0  0  0  0  0  0  0999 V2000
   16.8470    3.0860  -13.9120 Br  0  0  0  0  0  0  0  0  0  0  0  0
   15.6380    7.5210  -16.8000 C   0  0  0  0  0  2  0  0  0  0  0  0
   15.9700    7.3230  -18.2950 C   0  0  0  0  0  3  0  0  0  0  0  0
   16.6210    8.6090  -18.8350 C   0  0  0  0  0  3  0  0  0  0  0  0
   16.8470    8.6050  -20.3450 C   0  0  0  0  0  3  0  0  0  0  0  0
   15.6500    4.1720  -14.9040 C   0  0  0  0  0  3  0  0  0  0  0  0
   17.7820    7.4460  -20.7810 C   0  0  0  0  0  2  0  0  0  0  0  0
   16.8570    6.1150  -18.5240 C   0  0  0  0  0  2  0  0  0  0  0  0
   14.3230    3.7490  -15.0820 C   0  0  0  0  0  3  0  0  0  0  0  0
   17.4150   10.2260  -22.1550 C   0  0  0  0  0  2  0  0  0  0  0  0
   15.9710   10.2330  -22.7410 C   0  0  0  0  0  3  0  0  0  0  0  0
   14.9540   11.0850  -22.2480 C   0  0  0  0  0  2  0  0  0  0  0  0
   13.6640   11.0380  -22.8270 C   0  0  0  0  0  3  0  0  0  0  0  0
   13.4040   10.1530  -23.8760 C   0  0  0  0  0  2  0  0  0  0  0  0
   13.4300    4.5560  -15.7980 C   0  0  0  0  0  2  0  0  0  0  0  0
   14.4110    9.3230  -24.3630 C   0  0  0  0  0  2  0  0  0  0  0  0
   15.6920    9.3540  -23.7990 C   0  0  0  0  0  2  0  0  0  0  0  0
   12.4850   11.9130  -22.3740 C   0  0  0  0  0  3  0  0  0  0  0  0
   12.9550   13.2810  -21.8790 C   0  0  0  0  0  2  0  0  0  0  0  0
   12.5510   12.1910  -20.8740 C   0  0  0  0  0  2  0  0  0  0  0  0
   13.8500    5.7800  -16.3480 C   0  0  0  0  0  2  0  0  0  0  0  0
   15.1860    6.1920  -16.1820 C   0  0  0  0  0  3  0  0  0  0  0  0
   16.0910    5.3900  -15.4620 C   0  0  0  0  0  2  0  0  0  0  0  0
   17.4630    9.9120  -20.7050 N   0  0  0  0  0  2  0  0  0  0  0  0
   17.8370    4.8240  -20.6440 O   0  0  0  0  0  1  0  0  0  0  0  0
   15.6150    5.9080  -20.8590 O   0  0  0  0  0  1  0  0  0  0  0  0
   15.7810    9.7250  -18.5460 O   0  0  0  0  0  1  0  0  0  0  0  0
   13.9030    2.5330  -14.5530 O   0  0  0  0  0  1  0  0  0  0  0  0
   16.9690    5.9080  -20.3130 S   0  0  0  0  0  4  0  0  0  0  0  0
  1  6  1  0
  2  3  1  0
  2 22  1  0
  3  4  1  0
  3  8  1  0
  4  5  1  0
  4 27  1  0
  5  7  1  0
  5 24  1  0
  6  9  1  0
  6 23  1  0
  7 29  1  0
  8 29  1  0
  9 15  1  0
  9 28  1  0
 10 11  1  0
 10 24  1  0
 11 12  1  0
 11 17  1  0
 12 13  1  0
 13 14  1  0
 13 18  1  0
 14 16  1  0
 15 21  1  0
 16 17  1  0
 18 19  1  0
 18 20  1  0
 19 20  1  0
 21 22  1  0
 22 23  1  0
 25 29  1  0
 26 29  1  0
M  END
$$$$
