3qbh_B_QBH_387
     RDKit          3D

 38 41  0  0  0  0  0  0  0  0999 V2000
   16.8890    6.0160  -19.6340 C   0  0  0  0  0  2  0  0  0  0  0  0
   15.8740    7.3420  -17.6370 C   0  0  0  0  0  2  0  0  0  0  0  0
   15.3820    6.0000  -17.0620 C   0  0  0  0  0  3  0  0  0  0  0  0
   16.2590    5.1880  -16.3030 C   0  0  0  0  0  2  0  0  0  0  0  0
   17.9830    7.4370  -21.7480 C   0  0  0  0  0  2  0  0  0  0  0  0
   15.8370    3.9420  -15.7720 C   0  0  0  0  0  3  0  0  0  0  0  0
   14.5030    3.5110  -16.0210 C   0  0  0  0  0  3  0  0  0  0  0  0
   13.6200    4.3180  -16.7740 C   0  0  0  0  0  2  0  0  0  0  0  0
   14.0540    5.5600  -17.2940 C   0  0  0  0  0  2  0  0  0  0  0  0
   16.8300    3.0920  -14.9400 C   0  0  0  0  0  2  0  0  0  0  0  0
   17.8730    2.2560  -15.7460 C   0  0  0  0  0  3  0  0  0  0  0  0
   18.8260    2.6450  -17.8670 C   0  0  0  0  0  3  0  0  0  0  0  0
   17.3030    1.3180  -16.8400 C   0  0  0  0  0  2  0  0  0  0  0  0
   19.8420    3.9340  -16.0040 C   0  0  0  0  0  2  0  0  0  0  0  0
   20.8240    3.3790  -14.9340 C   0  0  0  0  0  2  0  0  0  0  0  0
   21.8710    4.4630  -14.5530 C   0  0  0  0  0  1  0  0  0  0  0  0
   17.1380    8.6380  -21.2410 C   0  0  0  0  0  3  0  0  0  0  0  0
   17.7750   10.3750  -23.0630 C   0  0  0  0  0  2  0  0  0  0  0  0
   16.3540   10.4300  -23.6650 C   0  0  0  0  0  3  0  0  0  0  0  0
   15.4100   11.3870  -23.2120 C   0  0  0  0  0  2  0  0  0  0  0  0
   14.0970   11.4550  -23.7580 C   0  0  0  0  0  3  0  0  0  0  0  0
   13.7430   10.5320  -24.7720 C   0  0  0  0  0  2  0  0  0  0  0  0
   14.6730    9.5720  -25.2320 C   0  0  0  0  0  2  0  0  0  0  0  0
   15.9790    9.5190  -24.6830 C   0  0  0  0  0  2  0  0  0  0  0  0
   13.0850   12.5130  -23.2560 C   0  0  0  0  0  3  0  0  0  0  0  0
   12.5340   12.1070  -21.8700 C   0  0  0  0  0  1  0  0  0  0  0  0
   16.8370    8.5840  -19.7090 C   0  0  0  0  0  3  0  0  0  0  0  0
   13.5930   13.9840  -23.2610 C   0  0  0  0  0  1  0  0  0  0  0  0
   16.1150    7.2980  -19.1920 C   0  0  0  0  0  3  0  0  0  0  0  0
   18.8720    2.9640  -16.5420 N   0  0  0  0  0  0  0  0  0  0  0  0
   17.7440    9.9490  -21.6230 N   0  0  0  0  0  2  0  0  0  0  0  0
   14.0200    2.2960  -15.5370 O   0  0  0  0  0  1  0  0  0  0  0  0
   17.8450    1.7610  -18.0960 O   0  0  0  0  0  0  0  0  0  0  0  0
   19.5320    3.0590  -18.7760 O   0  0  0  0  0  1  0  0  0  0  0  0
   16.0970    9.7790  -19.3840 O   0  0  0  0  0  1  0  0  0  0  0  0
   17.9920    4.8060  -21.7020 O   0  0  0  0  0  1  0  0  0  0  0  0
   15.7840    5.9550  -22.0300 O   0  0  0  0  0  1  0  0  0  0  0  0
   17.0960    5.9090  -21.4050 S   0  0  0  0  0  4  0  0  0  0  0  0
  1 29  1  0
  1 38  1  0
  2  3  1  0
  2 29  1  0
  3  4  1  0
  3  9  1  0
  4  6  1  0
  5 17  1  0
  5 38  1  0
  6  7  1  0
  6 10  1  0
  7  8  1  0
  7 32  1  0
  8  9  1  0
 10 11  1  0
 11 13  1  0
 11 30  1  0
 12 30  1  0
 12 33  1  0
 12 34  1  0
 13 33  1  0
 14 15  1  0
 14 30  1  0
 15 16  1  0
 17 27  1  0
 17 31  1  0
 18 19  1  0
 18 31  1  0
 19 20  1  0
 19 24  1  0
 20 21  1  0
 21 22  1  0
 21 25  1  0
 22 23  1  0
 23 24  1  0
 25 26  1  0
 25 28  1  0
 27 29  1  0
 27 35  1  0
 36 38  1  0
 37 38  1  0
M  END
$$$$
