3rtm_A_RTM_395
     RDKit          3D

 23 25  0  0  0  0  0  0  0  0999 V2000
   68.3300   51.1910   11.2220 C   0  0  0  0  0  2  0  0  0  0  0  0
   66.9080   46.1720    7.8280 C   0  0  0  0  0  2  0  0  0  0  0  0
   68.1970   45.3010    7.7860 C   0  0  0  0  0  2  0  0  0  0  0  0
   69.2630   46.2750    7.3670 C   0  0  0  0  0  3  0  0  0  0  0  0
   70.3640   45.7820    9.4850 C   0  0  0  0  0  1  0  0  0  0  0  0
   71.0660   47.6920    7.7870 C   0  0  0  0  0  3  0  0  0  0  0  0
   71.1300   48.7910    8.8520 C   0  0  0  0  0  2  0  0  0  0  0  0
   71.3550   50.1140    8.1030 C   0  0  0  0  0  2  0  0  0  0  0  0
   72.4840   50.0120    7.0390 C   0  0  0  0  0  2  0  0  0  0  0  0
   72.6270   48.6580    6.2850 C   0  0  0  0  0  2  0  0  0  0  0  0
   72.4290   47.4350    7.1920 C   0  0  0  0  0  2  0  0  0  0  0  0
   68.1740   52.1510   10.2210 C   0  0  0  0  0  2  0  0  0  0  0  0
   67.8070   51.7450    8.9400 C   0  0  0  0  0  2  0  0  0  0  0  0
   68.1130   49.8320   10.9440 C   0  0  0  0  0  2  0  0  0  0  0  0
   67.7430   49.4420    9.6500 C   0  0  0  0  0  3  0  0  0  0  0  0
   67.5850   50.4050    8.6490 C   0  0  0  0  0  3  0  0  0  0  0  0
   67.0030   48.7500    7.0910 C   0  0  0  0  0  3  0  0  0  0  0  0
   67.1430   47.7100    8.0530 C   0  0  0  0  0  3  0  0  0  0  0  0
   67.5210   48.1000    9.3470 C   0  0  0  0  0  2  0  0  0  0  0  0
   67.2290   50.0380    7.4130 N   0  0  0  0  0  2  0  0  0  0  0  0
   66.6510   48.5160    5.8250 N   0  0  0  0  0  1  0  0  0  0  0  0
   70.2560   46.5410    8.2130 N   0  0  0  0  0  0  0  0  0  0  0  0
   69.1000   46.9130    6.3200 O   0  0  0  0  0  1  0  0  0  0  0  0
  1 12  1  0
  1 14  1  0
  2  3  1  0
  2 18  1  0
  3  4  1  0
  4 22  1  0
  4 23  1  0
  5 22  1  0
  6  7  1  0
  6 11  1  0
  6 22  1  0
  7  8  1  0
  8  9  1  0
  9 10  1  0
 10 11  1  0
 12 13  1  0
 13 16  1  0
 14 15  1  0
 15 16  1  0
 15 19  1  0
 16 20  1  0
 17 18  1  0
 17 20  1  0
 17 21  1  0
 18 19  1  0
M  END
$$$$
