3rtn_A_RTN_401
     RDKit          3D

 29 32  0  0  0  0  0  0  0  0999 V2000
   69.9090   49.5660   11.2300 C   0  0  0  0  0  3  0  0  0  0  0  0
   67.6320   47.1810    9.4810 C   0  0  0  0  0  2  0  0  0  0  0  0
   70.7220   49.6940   12.3560 C   0  0  0  0  0  3  0  0  0  0  0  0
   70.3150   50.6400   13.2970 C   0  0  0  0  0  2  0  0  0  0  0  0
   71.0530   50.8320   14.4590 C   0  0  0  0  0  2  0  0  0  0  0  0
   72.2070   50.0900   14.6820 C   0  0  0  0  0  2  0  0  0  0  0  0
   72.6270   49.1450   13.7630 C   0  0  0  0  0  2  0  0  0  0  0  0
   71.8940   48.9500   12.5950 C   0  0  0  0  0  3  0  0  0  0  0  0
   72.4430   47.8850   11.6280 C   0  0  0  0  0  1  0  0  0  0  0  0
   66.0270   45.9090    7.9980 C   0  0  0  0  0  2  0  0  0  0  0  0
   64.5660   46.0460    8.4450 C   0  0  0  0  0  2  0  0  0  0  0  0
   69.7770   50.6690   10.3830 C   0  0  0  0  0  2  0  0  0  0  0  0
   64.4060   46.8170    9.7580 C   0  0  0  0  0  3  0  0  0  0  0  0
   64.3080   49.2000   10.6720 C   0  0  0  0  0  3  0  0  0  0  0  0
   62.9310   49.6690   11.0700 C   0  0  0  0  0  2  0  0  0  0  0  0
   63.1430   51.0900   11.5940 C   0  0  0  0  0  2  0  0  0  0  0  0
   64.0640   51.1210   12.8400 C   0  0  0  0  0  2  0  0  0  0  0  0
   65.3170   50.2600   12.7070 C   0  0  0  0  0  2  0  0  0  0  0  0
   65.0620   48.9120   11.9700 C   0  0  0  0  0  2  0  0  0  0  0  0
   68.9670   50.6220    9.2550 C   0  0  0  0  0  2  0  0  0  0  0  0
   68.2660   49.4580    8.9700 C   0  0  0  0  0  3  0  0  0  0  0  0
   68.3570   48.3380    9.8160 C   0  0  0  0  0  3  0  0  0  0  0  0
   69.1840   48.3990   10.9570 C   0  0  0  0  0  2  0  0  0  0  0  0
   66.7800   48.3550    7.5360 C   0  0  0  0  0  3  0  0  0  0  0  0
   66.8270   47.1830    8.3220 C   0  0  0  0  0  3  0  0  0  0  0  0
   64.3560   48.1400    9.6230 N   0  0  0  0  0  2  0  0  0  0  0  0
   66.0450   48.4420    6.4240 N   0  0  0  0  0  1  0  0  0  0  0  0
   67.4950   49.4310    7.8780 N   0  0  0  0  0  2  0  0  0  0  0  0
   64.3060   46.2170   10.8170 O   0  0  0  0  0  1  0  0  0  0  0  0
  1  3  1  0
  1 12  1  0
  1 23  1  0
  2 22  1  0
  2 25  1  0
  3  4  1  0
  3  8  1  0
  4  5  1  0
  5  6  1  0
  6  7  1  0
  7  8  1  0
  8  9  1  0
 10 11  1  0
 10 25  1  0
 11 13  1  0
 12 20  1  0
 13 26  1  0
 13 29  1  0
 14 15  1  0
 14 19  1  0
 14 26  1  0
 15 16  1  0
 16 17  1  0
 17 18  1  0
 18 19  1  0
 20 21  1  0
 21 22  1  0
 21 28  1  0
 22 23  1  0
 24 25  1  0
 24 27  1  0
 24 28  1  0
M  END
$$$$
