3s2o_A_EV6_393
     RDKit          3D

 28 32  0  0  0  0  0  0  0  0999 V2000
  -15.9650   39.7380    9.5740 C   0  0  0  0  0  3  0  0  0  0  0  0
  -15.2240   41.9280    8.6330 C   0  0  0  0  0  3  0  0  0  0  0  0
  -13.8540   42.3250    8.1130 C   0  0  0  0  0  2  0  0  0  0  0  0
  -12.7850   41.4930    8.8100 C   0  0  0  0  0  1  0  0  0  0  0  0
  -16.3430   42.6910    7.9330 C   0  0  0  0  0  2  0  0  0  0  0  0
  -17.6950   42.2010    8.4190 C   0  0  0  0  0  3  0  0  0  0  0  0
  -19.8600   41.1120    8.1390 C   0  0  0  0  0  3  0  0  0  0  0  0
  -16.2090   40.0720   10.9150 C   0  0  0  0  0  2  0  0  0  0  0  0
  -20.8000   40.8490    6.9870 C   0  0  0  0  0  3  0  0  0  0  0  0
  -22.2000   40.6120    7.5780 C   0  0  0  0  0  2  0  0  0  0  0  0
  -22.2540   39.3730    8.4690 C   0  0  0  0  0  3  0  0  0  0  0  0
  -21.8900   38.1650    7.5850 C   0  0  0  0  0  2  0  0  0  0  0  0
  -20.4580   38.3470    7.0440 C   0  0  0  0  0  3  0  0  0  0  0  0
  -20.3520   39.6130    6.2140 C   0  0  0  0  0  2  0  0  0  0  0  0
  -19.8000   39.8340    8.9740 C   0  0  0  0  0  3  0  0  0  0  0  0
  -19.4470   38.5930    8.1590 C   0  0  0  0  0  2  0  0  0  0  0  0
  -21.2000   39.5690    9.5710 C   0  0  0  0  0  2  0  0  0  0  0  0
  -16.6630   39.1020   11.8150 C   0  0  0  0  0  2  0  0  0  0  0  0
  -16.8670   37.8060   11.3460 C   0  0  0  0  0  3  0  0  0  0  0  0
  -16.6400   37.4040   10.0040 C   0  0  0  0  0  2  0  0  0  0  0  0
  -16.1910   38.3440    9.0920 C   0  0  0  0  0  3  0  0  0  0  0  0
  -15.5100   39.5700    7.5090 C   0  0  0  0  0  3  0  0  0  0  0  0
  -17.4660   36.5870   12.4810 Cl  0  0  0  0  0  0  0  0  0  0  0  0
  -15.1350   39.8720    6.2540 N   0  0  0  0  0  1  0  0  0  0  0  0
  -18.5550   41.5470    7.6070 N   0  0  0  0  0  2  0  0  0  0  0  0
  -15.8870   38.3000    7.7840 N   0  0  0  0  0  2  0  0  0  0  0  0
  -15.5200   40.4560    8.5380 N   0  0  0  0  0  0  0  0  0  0  0  0
  -17.9570   42.3890    9.6000 O   0  0  0  0  0  1  0  0  0  0  0  0
  1  8  1  0
  1 21  1  0
  1 27  1  0
  2  3  1  0
  2  5  1  0
  2 27  1  0
  3  4  1  0
  5  6  1  0
  6 25  1  0
  6 28  1  0
  7  9  1  0
  7 15  1  0
  7 25  1  0
  8 18  1  0
  9 10  1  0
  9 14  1  0
 10 11  1  0
 11 12  1  0
 11 17  1  0
 12 13  1  0
 13 14  1  0
 13 16  1  0
 15 16  1  0
 15 17  1  0
 18 19  1  0
 19 20  1  0
 19 23  1  0
 20 21  1  0
 21 26  1  0
 22 24  1  0
 22 26  1  0
 22 27  1  0
M  END
$$$$
