3s7l_A_591_1
     RDKit          3D

 27 30  0  0  0  0  0  0  0  0999 V2000
   17.5530  -11.1500   18.7230 C   0  0  0  0  0  1  0  0  0  0  0  0
   12.5900   -7.1210   16.5840 C   0  0  0  0  0  3  0  0  0  0  0  0
   11.8280   -8.2480   16.9570 C   0  0  0  0  0  2  0  0  0  0  0  0
   10.4420   -8.2380   16.8440 C   0  0  0  0  0  2  0  0  0  0  0  0
    9.7850   -7.1070   16.3670 C   0  0  0  0  0  2  0  0  0  0  0  0
   10.5050   -5.9600   15.9850 C   0  0  0  0  0  3  0  0  0  0  0  0
   11.8980   -5.9940   16.1090 C   0  0  0  0  0  2  0  0  0  0  0  0
    9.8730   -4.7240   15.4980 C   0  0  0  0  0  3  0  0  0  0  0  0
   10.2300   -4.0780   14.3190 C   0  0  0  0  0  2  0  0  0  0  0  0
    8.6780   -2.4150   14.6260 C   0  0  0  0  0  2  0  0  0  0  0  0
    8.8560   -4.0840   16.1890 C   0  0  0  0  0  2  0  0  0  0  0  0
   16.0590  -11.0770   18.9610 C   0  0  0  0  0  2  0  0  0  0  0  0
   15.1170   -8.8810   18.2090 C   0  0  0  0  0  2  0  0  0  0  0  0
   14.6440   -8.4220   17.0050 C   0  0  0  0  0  3  0  0  0  0  0  0
   14.7910   -9.5180   16.1320 C   0  0  0  0  0  2  0  0  0  0  0  0
   14.1210   -7.0650   16.6860 C   0  0  0  0  0  0  0  0  0  0  0  0
   14.4900   -6.0280   17.7410 C   0  0  0  0  0  3  0  0  0  0  0  0
   15.2950   -5.4200   15.7960 C   0  0  0  0  0  3  0  0  0  0  0  0
   15.7030   -3.8990   17.7710 C   0  0  0  0  0  1  0  0  0  0  0  0
   15.4940  -10.1650   17.9930 N   0  0  0  0  0  0  0  0  0  0  0  0
   15.3080  -10.5770   16.7340 N   0  0  0  0  0  2  0  0  0  0  0  0
   15.1850   -5.0630   17.0950 N   0  0  0  0  0  0  0  0  0  0  0  0
   14.8540   -6.5860   15.4850 N   0  0  0  0  0  2  0  0  0  0  0  0
   16.2330   -4.8690   15.0200 N   0  0  0  0  0  1  0  0  0  0  0  0
    9.6540   -2.9330   13.8610 N   0  0  0  0  0  2  0  0  0  0  0  0
    8.2430   -2.9410   15.7830 N   0  0  0  0  0  2  0  0  0  0  0  0
   14.1940   -6.0490   18.9220 O   0  0  0  0  0  1  0  0  0  0  0  0
  1 12  1  0
  2  3  1  0
  2  7  1  0
  2 16  1  0
  3  4  1  0
  4  5  1  0
  5  6  1  0
  6  7  1  0
  6  8  1  0
  8  9  1  0
  8 11  1  0
  9 25  1  0
 10 25  1  0
 10 26  1  0
 11 26  1  0
 12 20  1  0
 13 14  1  0
 13 20  1  0
 14 15  1  0
 14 16  1  0
 15 21  1  0
 16 17  1  0
 16 23  1  0
 17 22  1  0
 17 27  1  0
 18 22  1  0
 18 23  1  0
 18 24  1  0
 19 22  1  0
 20 21  1  0
M  END
$$$$
