3u6a_C_18P_386
     RDKit          3D

 26 28  0  0  0  0  0  0  0  0999 V2000
   23.7120    4.5060   15.2480 C   0  0  0  0  0  2  0  0  0  0  0  0
   30.7240    7.8320    9.0690 C   0  0  0  0  0  1  0  0  0  0  0  0
   29.8440    5.5350    8.8740 C   0  0  0  0  0  2  0  0  0  0  0  0
   30.1220    4.0800    9.0650 C   0  0  0  0  0  3  0  0  0  0  0  0
   31.9040    4.5220   10.7330 C   0  0  0  0  0  0  0  0  0  0  0  0
   33.3140    3.8720   10.6800 C   0  0  0  0  0  1  0  0  0  0  0  0
   31.8890    5.9790   10.1950 C   0  0  0  0  0  3  0  0  0  0  0  0
   31.4290    4.6470   12.1900 C   0  0  0  0  0  3  0  0  0  0  0  0
   32.3180    4.9750   13.2400 C   0  0  0  0  0  2  0  0  0  0  0  0
   31.8490    5.0650   14.5620 C   0  0  0  0  0  2  0  0  0  0  0  0
   30.4900    4.8540   14.8570 C   0  0  0  0  0  2  0  0  0  0  0  0
   29.5990    4.5110   13.8140 C   0  0  0  0  0  3  0  0  0  0  0  0
   30.0730    4.4180   12.5010 C   0  0  0  0  0  2  0  0  0  0  0  0
   27.3950    4.6750   14.9520 C   0  0  0  0  0  3  0  0  0  0  0  0
   25.9700    4.2680   14.7440 C   0  0  0  0  0  3  0  0  0  0  0  0
   25.7080    3.2510   13.8090 C   0  0  0  0  0  2  0  0  0  0  0  0
   24.3890    2.8350   13.5990 C   0  0  0  0  0  2  0  0  0  0  0  0
   23.3750    3.4850   14.3270 C   0  0  0  0  0  3  0  0  0  0  0  0
   21.7490    2.9990   14.0740 Cl  0  0  0  0  0  0  0  0  0  0  0  0
   24.9950    4.9090   15.4640 N   0  0  0  0  0  2  0  0  0  0  0  0
   30.8660    6.4120    9.4260 N   0  0  0  0  0  0  0  0  0  0  0  0
   29.2940    3.1980    8.5040 N   0  0  0  0  0  1  0  0  0  0  0  0
   30.9960    3.6490    9.9840 N   0  0  0  0  0  2  0  0  0  0  0  0
   28.2150    4.2830   13.9660 N   0  0  0  0  0  2  0  0  0  0  0  0
   27.7110    5.2920   15.9710 O   0  0  0  0  0  1  0  0  0  0  0  0
   32.8120    6.7510   10.4860 O   0  0  0  0  0  1  0  0  0  0  0  0
  1 18  1  0
  1 20  1  0
  2 21  1  0
  3  4  1  0
  3 21  1  0
  4 22  1  0
  4 23  1  0
  5  6  1  0
  5  7  1  0
  5  8  1  0
  5 23  1  0
  7 21  1  0
  7 26  1  0
  8  9  1  0
  8 13  1  0
  9 10  1  0
 10 11  1  0
 11 12  1  0
 12 13  1  0
 12 24  1  0
 14 15  1  0
 14 24  1  0
 14 25  1  0
 15 16  1  0
 15 20  1  0
 16 17  1  0
 17 18  1  0
 18 19  1  0
M  END
$$$$
