3u6a_B_18P_386
     RDKit          3D

 26 28  0  0  0  0  0  0  0  0999 V2000
   62.4510  -32.7760   11.9170 C   0  0  0  0  0  2  0  0  0  0  0  0
   68.0660  -38.1000    6.5610 C   0  0  0  0  0  1  0  0  0  0  0  0
   66.7250  -36.0090    6.6020 C   0  0  0  0  0  2  0  0  0  0  0  0
   65.6210  -35.2500    5.9150 C   0  0  0  0  0  3  0  0  0  0  0  0
   64.4650  -37.3270    5.2880 C   0  0  0  0  0  0  0  0  0  0  0  0
   63.8600  -37.8680    3.9780 C   0  0  0  0  0  1  0  0  0  0  0  0
   65.7740  -38.0790    5.6440 C   0  0  0  0  0  3  0  0  0  0  0  0
   63.5050  -37.6520    6.4380 C   0  0  0  0  0  3  0  0  0  0  0  0
   62.7130  -38.8290    6.4030 C   0  0  0  0  0  2  0  0  0  0  0  0
   61.8340  -39.1180    7.4700 C   0  0  0  0  0  2  0  0  0  0  0  0
   61.7260  -38.2400    8.5740 C   0  0  0  0  0  2  0  0  0  0  0  0
   62.5140  -37.0630    8.6060 C   0  0  0  0  0  3  0  0  0  0  0  0
   63.3950  -36.7840    7.5470 C   0  0  0  0  0  2  0  0  0  0  0  0
   62.0960  -36.3160   10.9170 C   0  0  0  0  0  3  0  0  0  0  0  0
   62.2050  -35.1050   11.8010 C   0  0  0  0  0  3  0  0  0  0  0  0
   62.1380  -35.2130   13.2090 C   0  0  0  0  0  2  0  0  0  0  0  0
   62.2590  -34.0360   13.9830 C   0  0  0  0  0  2  0  0  0  0  0  0
   62.4160  -32.7940   13.3270 C   0  0  0  0  0  3  0  0  0  0  0  0
   62.5330  -31.3250   14.2300 Cl  0  0  0  0  0  0  0  0  0  0  0  0
   62.3590  -33.9020   11.1680 N   0  0  0  0  0  2  0  0  0  0  0  0
   66.8010  -37.4230    6.2400 N   0  0  0  0  0  0  0  0  0  0  0  0
   65.7500  -33.9210    5.7940 N   0  0  0  0  0  1  0  0  0  0  0  0
   64.6910  -35.8790    5.1720 N   0  0  0  0  0  2  0  0  0  0  0  0
   62.4960  -36.1200    9.6580 N   0  0  0  0  0  2  0  0  0  0  0  0
   61.6520  -37.3880   11.3430 O   0  0  0  0  0  1  0  0  0  0  0  0
   65.8380  -39.2860    5.3860 O   0  0  0  0  0  1  0  0  0  0  0  0
  1 18  1  0
  1 20  1  0
  2 21  1  0
  3  4  1  0
  3 21  1  0
  4 22  1  0
  4 23  1  0
  5  6  1  0
  5  7  1  0
  5  8  1  0
  5 23  1  0
  7 21  1  0
  7 26  1  0
  8  9  1  0
  8 13  1  0
  9 10  1  0
 10 11  1  0
 11 12  1  0
 12 13  1  0
 12 24  1  0
 14 15  1  0
 14 24  1  0
 14 25  1  0
 15 16  1  0
 15 20  1  0
 16 17  1  0
 17 18  1  0
 18 19  1  0
M  END
$$$$
