3udh_A_091_501
     RDKit          3D

 14 16  0  0  0  0  0  0  0  0999 V2000
   23.0870   36.3340   41.4120 C   0  0  0  0  0  0  0  0  0  0  0  0
   26.4660   37.6510   40.2870 C   0  0  0  0  0  2  0  0  0  0  0  0
   27.0370   37.7960   41.5320 C   0  0  0  0  0  2  0  0  0  0  0  0
   24.4800   36.8450   41.2850 C   0  0  0  0  0  3  0  0  0  0  0  0
   22.9810   36.1650   42.9120 C   0  0  0  0  0  3  0  0  0  0  0  0
   22.0820   37.3700   40.9790 C   0  0  0  0  0  2  0  0  0  0  0  0
   22.7770   35.0610   40.6520 C   0  0  0  0  0  2  0  0  0  0  0  0
   25.0570   36.9900   42.5110 C   0  0  0  0  0  3  0  0  0  0  0  0
   25.1800   37.1610   40.1580 C   0  0  0  0  0  2  0  0  0  0  0  0
   20.9440   36.6090   40.3350 C   0  0  0  0  0  2  0  0  0  0  0  0
   26.3310   37.4800   42.6680 C   0  0  0  0  0  2  0  0  0  0  0  0
   24.1670   36.5930   43.5030 N   0  0  0  0  0  2  0  0  0  0  0  0
   21.5990   35.3980   39.7910 N   0  0  0  0  0  2  0  0  0  0  0  0
   21.9260   35.8730   43.4650 O   0  0  0  0  0  1  0  0  0  0  0  0
  1  4  1  0
  1  5  1  0
  1  6  1  0
  1  7  1  0
  2  3  1  0
  2  9  1  0
  3 11  1  0
  4  8  1  0
  4  9  1  0
  5 12  1  0
  5 14  1  0
  6 10  1  0
  7 13  1  0
  8 11  1  0
  8 12  1  0
 10 13  1  0
M  END
$$$$
