3udk_A_095_501
     RDKit          3D

 23 26  0  0  0  0  0  0  0  0999 V2000
   24.8250   37.4520   41.9860 C   0  0  0  0  0  3  0  0  0  0  0  0
   23.0970   35.7660   41.4430 C   0  0  0  0  0  2  0  0  0  0  0  0
   23.2860   36.9370   43.6350 C   0  0  0  0  0  3  0  0  0  0  0  0
   25.4340   37.4770   43.2070 C   0  0  0  0  0  3  0  0  0  0  0  0
   19.4500   35.4400   43.7570 C   0  0  0  0  0  3  0  0  0  0  0  0
   19.8720   34.0330   44.1600 C   0  0  0  0  0  2  0  0  0  0  0  0
   23.4080   37.0720   42.1390 C   0  0  0  0  0  0  0  0  0  0  0  0
   18.7550   33.1650   44.7010 C   0  0  0  0  0  2  0  0  0  0  0  0
   17.1130   34.6190   44.1460 C   0  0  0  0  0  2  0  0  0  0  0  0
   17.9890   35.5760   43.3720 C   0  0  0  0  0  2  0  0  0  0  0  0
   25.5360   37.6950   40.8370 C   0  0  0  0  0  2  0  0  0  0  0  0
   22.4300   38.1000   41.6450 C   0  0  0  0  0  2  0  0  0  0  0  0
   26.8760   37.9950   40.9650 C   0  0  0  0  0  2  0  0  0  0  0  0
   26.7630   37.7800   43.3560 C   0  0  0  0  0  2  0  0  0  0  0  0
   21.2490   37.3000   41.1690 C   0  0  0  0  0  3  0  0  0  0  0  0
   27.4780   38.0510   42.2090 C   0  0  0  0  0  2  0  0  0  0  0  0
   20.3220   37.0550   42.3300 C   0  0  0  0  0  3  0  0  0  0  0  0
   21.8420   36.0220   40.6960 N   0  0  0  0  0  2  0  0  0  0  0  0
   24.5160   37.1880   44.2130 N   0  0  0  0  0  2  0  0  0  0  0  0
   20.2140   35.7220   42.5890 O   0  0  0  0  0  0  0  0  0  0  0  0
   19.7650   37.9340   42.9680 O   0  0  0  0  0  1  0  0  0  0  0  0
   22.2450   36.6700   44.2160 O   0  0  0  0  0  1  0  0  0  0  0  0
   17.5910   33.3060   43.9050 O   0  0  0  0  0  0  0  0  0  0  0  0
  1  4  1  0
  1  7  1  0
  1 11  1  0
  2  7  1  0
  2 18  1  0
  3  7  1  0
  3 19  1  0
  3 22  1  0
  4 14  1  0
  4 19  1  0
  5  6  1  0
  5 10  1  0
  5 20  1  0
  6  8  1  0
  7 12  1  0
  8 23  1  0
  9 10  1  0
  9 23  1  0
 11 13  1  0
 12 15  1  0
 13 16  1  0
 14 16  1  0
 15 17  1  0
 15 18  1  0
 17 20  1  0
 17 21  1  0
M  END
$$$$
