3udp_A_09D_501
     RDKit          3D

 28 32  0  0  0  0  0  0  0  0999 V2000
   16.6780   41.2460   41.3160 Br  0  0  0  0  0  0  0  0  0  0  0  0
   26.3070   37.6460   40.0520 C   0  0  0  0  0  2  0  0  0  0  0  0
   24.8940   36.9250   42.2720 C   0  0  0  0  0  3  0  0  0  0  0  0
   17.5600   38.1490   44.6920 C   0  0  0  0  0  3  0  0  0  0  0  0
   17.0120   40.0110   42.7220 C   0  0  0  0  0  3  0  0  0  0  0  0
   22.8520   36.0300   42.6510 C   0  0  0  0  0  3  0  0  0  0  0  0
   19.7640   35.9780   41.0520 C   0  0  0  0  0  3  0  0  0  0  0  0
   18.9590   35.7260   43.9620 C   0  0  0  0  0  2  0  0  0  0  0  0
   21.8790   37.2890   40.8660 C   0  0  0  0  0  2  0  0  0  0  0  0
   22.6990   35.0290   40.3870 C   0  0  0  0  0  2  0  0  0  0  0  0
   17.9220   35.4870   45.0380 C   0  0  0  0  0  2  0  0  0  0  0  0
   18.3570   36.5430   42.8420 C   0  0  0  0  0  3  0  0  0  0  0  0
   26.8700   37.7740   41.3100 C   0  0  0  0  0  2  0  0  0  0  0  0
   20.8170   36.5110   40.1290 C   0  0  0  0  0  3  0  0  0  0  0  0
   22.9530   36.2800   41.1750 C   0  0  0  0  0  0  0  0  0  0  0  0
   25.0310   37.1400   39.9050 C   0  0  0  0  0  2  0  0  0  0  0  0
   26.1700   37.3990   42.4430 C   0  0  0  0  0  2  0  0  0  0  0  0
   17.0550   39.3990   45.0130 C   0  0  0  0  0  2  0  0  0  0  0  0
   16.7770   40.3370   44.0390 C   0  0  0  0  0  2  0  0  0  0  0  0
   17.5240   38.7800   42.3940 C   0  0  0  0  0  2  0  0  0  0  0  0
   24.3350   36.7850   41.0390 C   0  0  0  0  0  3  0  0  0  0  0  0
   17.7910   37.8370   43.3600 C   0  0  0  0  0  3  0  0  0  0  0  0
   24.0060   36.4810   43.2470 N   0  0  0  0  0  2  0  0  0  0  0  0
   21.5520   35.3660   39.5350 N   0  0  0  0  0  2  0  0  0  0  0  0
   21.8650   35.5650   43.1960 O   0  0  0  0  0  1  0  0  0  0  0  0
   19.3100   34.8470   40.9720 O   0  0  0  0  0  1  0  0  0  0  0  0
   19.4130   36.9230   41.9530 O   0  0  0  0  0  0  0  0  0  0  0  0
   17.8530   36.9970   46.0290 S   0  0  0  0  0  0  0  0  0  0  0  0
  1  5  1  0
  2 13  1  0
  2 16  1  0
  3 17  1  0
  3 21  1  0
  3 23  1  0
  4 18  1  0
  4 22  1  0
  4 28  1  0
  5 19  1  0
  5 20  1  0
  6 15  1  0
  6 23  1  0
  6 25  1  0
  7 14  1  0
  7 26  1  0
  7 27  1  0
  8 11  1  0
  8 12  1  0
  9 14  1  0
  9 15  1  0
 10 15  1  0
 10 24  1  0
 11 28  1  0
 12 22  1  0
 12 27  1  0
 13 17  1  0
 14 24  1  0
 15 21  1  0
 16 21  1  0
 18 19  1  0
 20 22  1  0
M  END
$$$$
