3udq_A_09E_4000
     RDKit          3D

 30 34  0  0  0  0  0  0  0  0999 V2000
   16.7100   42.1160   41.8080 Br  0  0  0  0  0  0  0  0  0  0  0  0
   24.3670   37.4750   41.4680 C   0  0  0  0  0  3  0  0  0  0  0  0
   22.6360   35.5840   41.1250 C   0  0  0  0  0  2  0  0  0  0  0  0
   23.0890   36.7320   43.3520 C   0  0  0  0  0  3  0  0  0  0  0  0
   25.1380   37.5710   42.6740 C   0  0  0  0  0  3  0  0  0  0  0  0
   18.2430   37.2200   43.2990 C   0  0  0  0  0  3  0  0  0  0  0  0
   18.8670   36.3770   44.4610 C   0  0  0  0  0  2  0  0  0  0  0  0
   17.8140   36.1880   45.5430 C   0  0  0  0  0  2  0  0  0  0  0  0
   17.3980   38.8030   45.1300 C   0  0  0  0  0  3  0  0  0  0  0  0
   17.6980   38.5690   43.7420 C   0  0  0  0  0  3  0  0  0  0  0  0
   17.4980   39.5700   42.7630 C   0  0  0  0  0  2  0  0  0  0  0  0
   17.0010   40.7980   43.1610 C   0  0  0  0  0  3  0  0  0  0  0  0
   22.9980   36.9410   41.8140 C   0  0  0  0  0  0  0  0  0  0  0  0
   16.6950   41.0910   44.5120 C   0  0  0  0  0  2  0  0  0  0  0  0
   16.8740   40.0980   45.4850 C   0  0  0  0  0  2  0  0  0  0  0  0
   24.9240   37.8430   40.2350 C   0  0  0  0  0  2  0  0  0  0  0  0
   21.8760   37.9320   41.4500 C   0  0  0  0  0  2  0  0  0  0  0  0
   26.2620   38.2890   40.2370 C   0  0  0  0  0  2  0  0  0  0  0  0
   26.4660   38.0000   42.6660 C   0  0  0  0  0  2  0  0  0  0  0  0
   20.8790   37.0920   40.6400 C   0  0  0  0  0  3  0  0  0  0  0  0
   27.0260   38.3350   41.4180 C   0  0  0  0  0  2  0  0  0  0  0  0
   19.7090   36.5690   41.5090 C   0  0  0  0  0  3  0  0  0  0  0  0
   21.6010   35.8980   40.1160 N   0  0  0  0  0  2  0  0  0  0  0  0
   24.3660   37.1350   43.7750 N   0  0  0  0  0  2  0  0  0  0  0  0
   19.1400   35.4790   41.4360 O   0  0  0  0  0  1  0  0  0  0  0  0
   22.2250   36.3400   44.1200 O   0  0  0  0  0  1  0  0  0  0  0  0
   19.3020   37.5150   42.4110 O   0  0  0  0  0  0  0  0  0  0  0  0
   16.2540   37.5430   46.9760 O   0  0  0  0  0  1  0  0  0  0  0  0
   18.6700   37.8890   47.1990 O   0  0  0  0  0  1  0  0  0  0  0  0
   17.5350   37.6430   46.3770 S   0  0  0  0  0  4  0  0  0  0  0  0
  1 12  1  0
  2  5  1  0
  2 13  1  0
  2 16  1  0
  3 13  1  0
  3 23  1  0
  4 13  1  0
  4 24  1  0
  4 26  1  0
  5 19  1  0
  5 24  1  0
  6  7  1  0
  6 10  1  0
  6 27  1  0
  7  8  1  0
  8 30  1  0
  9 10  1  0
  9 15  1  0
  9 30  1  0
 10 11  1  0
 11 12  1  0
 12 14  1  0
 13 17  1  0
 14 15  1  0
 16 18  1  0
 17 20  1  0
 18 21  1  0
 19 21  1  0
 20 22  1  0
 20 23  1  0
 22 25  1  0
 22 27  1  0
 28 30  1  0
 29 30  1  0
M  END
$$$$
