3udr_A_09F_501
     RDKit          3D

 25 28  0  0  0  0  0  0  0  0999 V2000
   24.4040   36.7220   41.2430 C   0  0  0  0  0  3  0  0  0  0  0  0
   22.5960   35.0740   40.6400 C   0  0  0  0  0  2  0  0  0  0  0  0
   22.8550   36.2630   42.8980 C   0  0  0  0  0  3  0  0  0  0  0  0
   24.9800   36.8650   42.4760 C   0  0  0  0  0  3  0  0  0  0  0  0
   18.7100   34.8800   42.9040 C   0  0  0  0  0  0  0  0  0  0  0  0
   19.0430   33.4470   43.2650 C   0  0  0  0  0  2  0  0  0  0  0  0
   22.9760   36.3520   41.3810 C   0  0  0  0  0  0  0  0  0  0  0  0
   18.1270   32.8880   44.3350 C   0  0  0  0  0  2  0  0  0  0  0  0
   16.6880   32.9840   43.8880 C   0  0  0  0  0  2  0  0  0  0  0  0
   16.3240   34.3930   43.5000 C   0  0  0  0  0  2  0  0  0  0  0  0
   17.2640   34.9710   42.4650 C   0  0  0  0  0  2  0  0  0  0  0  0
   18.9520   35.7220   44.0700 C   0  0  0  0  0  2  0  0  0  0  0  0
   25.1400   36.9470   40.1040 C   0  0  0  0  0  2  0  0  0  0  0  0
   22.0230   37.4260   40.9120 C   0  0  0  0  0  2  0  0  0  0  0  0
   26.4590   37.3340   40.2500 C   0  0  0  0  0  2  0  0  0  0  0  0
   26.2860   37.2380   42.6470 C   0  0  0  0  0  2  0  0  0  0  0  0
   20.7970   36.6940   40.4220 C   0  0  0  0  0  3  0  0  0  0  0  0
   27.0140   37.4920   41.5090 C   0  0  0  0  0  2  0  0  0  0  0  0
   19.8280   36.5230   41.5710 C   0  0  0  0  0  3  0  0  0  0  0  0
   21.3330   35.3910   39.9090 N   0  0  0  0  0  2  0  0  0  0  0  0
   24.0700   36.5880   43.4650 N   0  0  0  0  0  2  0  0  0  0  0  0
   19.1480   36.3740   45.0110 N   0  0  0  0  0  1  0  0  0  0  0  0
   19.5900   35.2060   41.7890 O   0  0  0  0  0  0  0  0  0  0  0  0
   19.2240   37.4530   42.1000 O   0  0  0  0  0  1  0  0  0  0  0  0
   21.8390   35.9830   43.5300 O   0  0  0  0  0  1  0  0  0  0  0  0
  1  4  1  0
  1  7  1  0
  1 13  1  0
  2  7  1  0
  2 20  1  0
  3  7  1  0
  3 21  1  0
  3 25  1  0
  4 16  1  0
  4 21  1  0
  5  6  1  0
  5 11  1  0
  5 12  1  0
  5 23  1  0
  6  8  1  0
  7 14  1  0
  8  9  1  0
  9 10  1  0
 10 11  1  0
 12 22  1  0
 13 15  1  0
 14 17  1  0
 15 18  1  0
 16 18  1  0
 17 19  1  0
 17 20  1  0
 19 23  1  0
 19 24  1  0
M  END
$$$$
