3ufl_A_508_449
     RDKit          3D

 34 39  0  0  0  0  0  0  0  0999 V2000
   30.8330   38.7490    2.3120 C   0  0  0  0  0  0  0  0  0  0  0  0
   30.6730   39.1810    3.7760 C   0  0  0  0  0  2  0  0  0  0  0  0
   31.3720   34.9710   -0.6110 C   0  0  0  0  0  3  0  0  0  0  0  0
   33.5450   37.5440   -2.6020 C   0  0  0  0  0  3  0  0  0  0  0  0
   33.1950   38.8730   -2.8840 C   0  0  0  0  0  2  0  0  0  0  0  0
   33.7740   39.5690   -3.9500 C   0  0  0  0  0  2  0  0  0  0  0  0
   34.7220   38.9270   -4.7490 C   0  0  0  0  0  2  0  0  0  0  0  0
   35.0820   37.6050   -4.4710 C   0  0  0  0  0  2  0  0  0  0  0  0
   34.5020   36.9180   -3.4070 C   0  0  0  0  0  2  0  0  0  0  0  0
   29.5200   39.1210    1.5790 C   0  0  0  0  0  2  0  0  0  0  0  0
   29.4720   40.4950    0.8990 C   0  0  0  0  0  2  0  0  0  0  0  0
   30.5950   40.5570   -0.1380 C   0  0  0  0  0  2  0  0  0  0  0  0
   30.1630   36.8240    3.6840 C   0  0  0  0  0  2  0  0  0  0  0  0
   31.9310   40.3460    0.5290 C   0  0  0  0  0  3  0  0  0  0  0  0
   32.0570   39.4610    1.7340 C   0  0  0  0  0  3  0  0  0  0  0  0
   32.9780   40.9790    0.0140 C   0  0  0  0  0  2  0  0  0  0  0  0
   34.3310   40.8290    0.6190 C   0  0  0  0  0  2  0  0  0  0  0  0
   34.4620   40.0510    1.6840 C   0  0  0  0  0  2  0  0  0  0  0  0
   33.2770   39.3470    2.2560 C   0  0  0  0  0  2  0  0  0  0  0  0
   31.2010   33.4810   -0.3330 C   0  0  0  0  0  3  0  0  0  0  0  0
   30.7800   33.0840    0.9470 C   0  0  0  0  0  2  0  0  0  0  0  0
   30.5970   31.7430    1.2880 C   0  0  0  0  0  2  0  0  0  0  0  0
   30.8380   30.7560    0.3350 C   0  0  0  0  0  2  0  0  0  0  0  0
   31.0160   37.2280    2.4800 C   0  0  0  0  0  3  0  0  0  0  0  0
   31.2550   31.1190   -0.9470 C   0  0  0  0  0  2  0  0  0  0  0  0
   31.4280   32.4700   -1.2760 C   0  0  0  0  0  2  0  0  0  0  0  0
   30.6680   36.3700    1.2810 C   0  0  0  0  0  3  0  0  0  0  0  0
   33.1090   35.9080    0.8770 C   0  0  0  0  0  2  0  0  0  0  0  0
   33.7710   36.7900   -0.1880 C   0  0  0  0  0  2  0  0  0  0  0  0
   32.8790   36.8450   -1.4350 C   0  0  0  0  0  3  0  0  0  0  0  0
   32.2710   35.4670   -1.7630 C   0  0  0  0  0  2  0  0  0  0  0  0
   30.1720   38.0200    4.5650 N   0  0  0  0  0  2  0  0  0  0  0  0
   31.6700   35.8030    0.5710 N   0  0  0  0  0  0  0  0  0  0  0  0
   29.4880   36.2200    0.9890 O   0  0  0  0  0  1  0  0  0  0  0  0
  1  2  1  0
  1 10  1  0
  1 15  1  0
  1 24  1  0
  2 32  1  0
  3 20  1  0
  3 31  1  0
  3 33  1  0
  4  5  1  0
  4  9  1  0
  4 30  1  0
  5  6  1  0
  6  7  1  0
  7  8  1  0
  8  9  1  0
 10 11  1  0
 11 12  1  0
 12 14  1  0
 13 24  1  0
 13 32  1  0
 14 15  1  0
 14 16  1  0
 15 19  1  0
 16 17  1  0
 17 18  1  0
 18 19  1  0
 20 21  1  0
 20 26  1  0
 21 22  1  0
 22 23  1  0
 23 25  1  0
 24 27  1  0
 25 26  1  0
 27 33  1  0
 27 34  1  0
 28 29  1  0
 28 33  1  0
 29 30  1  0
 30 31  1  0
M  END
$$$$
