3uqw_A_ZPY_394
     RDKit          3D

 48 51  0  0  0  0  0  0  0  0999 V2000
   20.8000   34.3310   -0.0070 C   0  0  0  0  0  1  0  0  0  0  0  0
   18.3660   20.2430    3.8210 C   0  0  0  0  0  1  0  0  0  0  0  0
   26.6630   21.6950   -1.0460 C   0  0  0  0  0  1  0  0  0  0  0  0
   26.5490   18.1820   -0.0070 C   0  0  0  0  0  1  0  0  0  0  0  0
   17.7900   23.0150    0.3500 C   0  0  0  0  0  2  0  0  0  0  0  0
   17.6370   23.3310    1.7290 C   0  0  0  0  0  2  0  0  0  0  0  0
   18.6530   23.8290   -0.4290 C   0  0  0  0  0  2  0  0  0  0  0  0
   18.3290   24.4290    2.3120 C   0  0  0  0  0  2  0  0  0  0  0  0
   19.3370   24.9090    0.1670 C   0  0  0  0  0  2  0  0  0  0  0  0
   20.9790   19.4570    7.2680 C   0  0  0  0  0  2  0  0  0  0  0  0
   20.6520   17.1170    6.4370 C   0  0  0  0  0  2  0  0  0  0  0  0
   20.5630   19.9630    6.0060 C   0  0  0  0  0  2  0  0  0  0  0  0
   20.2390   17.6720    5.2050 C   0  0  0  0  0  2  0  0  0  0  0  0
   23.8980   30.0690   -0.3580 C   0  0  0  0  0  2  0  0  0  0  0  0
   22.1490   22.2780    1.3900 C   0  0  0  0  0  2  0  0  0  0  0  0
   23.7190   20.4400    1.0260 C   0  0  0  0  0  2  0  0  0  0  0  0
   24.3460   22.8120    0.5060 C   0  0  0  0  0  2  0  0  0  0  0  0
   23.1400   30.2440    1.7400 C   0  0  0  0  0  2  0  0  0  0  0  0
   21.8830   34.2360    1.1020 C   0  0  0  0  0  2  0  0  0  0  0  0
   19.8540   26.4030    2.1530 C   0  0  0  0  0  2  0  0  0  0  0  0
   23.5390   27.8790    2.5670 C   0  0  0  0  0  2  0  0  0  0  0  0
   21.4890   19.9110    1.9280 C   0  0  0  0  0  3  0  0  0  0  0  0
   22.7530   24.6720    0.8800 C   0  0  0  0  0  3  0  0  0  0  0  0
   23.0880   32.2220    0.3320 C   0  0  0  0  0  3  0  0  0  0  0  0
   21.0180   18.0180    7.4400 C   0  0  0  0  0  3  0  0  0  0  0  0
   19.1570   25.2640    1.5270 C   0  0  0  0  0  3  0  0  0  0  0  0
   23.3760   30.9130    0.5610 C   0  0  0  0  0  3  0  0  0  0  0  0
   22.4480   20.8800    1.4480 C   0  0  0  0  0  3  0  0  0  0  0  0
   23.0730   23.2740    0.9370 C   0  0  0  0  0  3  0  0  0  0  0  0
   20.1890   19.0710    4.9460 C   0  0  0  0  0  3  0  0  0  0  0  0
   24.6790   21.4100    0.5170 C   0  0  0  0  0  3  0  0  0  0  0  0
   19.7290   19.4930    3.6450 C   0  0  0  0  0  3  0  0  0  0  0  0
   22.0840   27.5240    2.9970 C   0  0  0  0  0  3  0  0  0  0  0  0
   21.4440   26.5290    1.9370 C   0  0  0  0  0  3  0  0  0  0  0  0
   21.4070   17.4110    8.6520 F   0  0  0  0  0  0  0  0  0  0  0  0
   24.0030   28.8540    0.2560 N   0  0  0  0  0  2  0  0  0  0  0  0
   20.7110   20.3320    2.9360 N   0  0  0  0  0  2  0  0  0  0  0  0
   22.0570   25.1850    1.9520 N   0  0  0  0  0  2  0  0  0  0  0  0
   25.9790   21.0410    0.1080 N   0  0  0  0  0  0  0  0  0  0  0  0
   23.5520   28.9670    1.5780 N   0  0  0  0  0  0  0  0  0  0  0  0
   21.4090   18.7420    1.4850 O   0  0  0  0  0  1  0  0  0  0  0  0
   23.0510   25.3800   -0.1000 O   0  0  0  0  0  1  0  0  0  0  0  0
   23.4470   32.7850   -0.7500 O   0  0  0  0  0  1  0  0  0  0  0  0
   26.4270   19.5900    2.3810 O   0  0  0  0  0  1  0  0  0  0  0  0
   28.3400   20.0820    0.8350 O   0  0  0  0  0  1  0  0  0  0  0  0
   22.1370   26.9280    4.2860 O   0  0  0  0  0  1  0  0  0  0  0  0
   22.3810   32.8820    1.3900 O   0  0  0  0  0  0  0  0  0  0  0  0
   26.8430   19.7440    0.9450 S   0  0  0  0  0  4  0  0  0  0  0  0
  1 19  1  0
  2 32  1  0
  3 39  1  0
  4 48  1  0
  5  6  1  0
  5  7  1  0
  6  8  1  0
  7  9  1  0
  8 26  1  0
  9 26  1  0
 10 12  1  0
 10 25  1  0
 11 13  1  0
 11 25  1  0
 12 30  1  0
 13 30  1  0
 14 27  1  0
 14 36  1  0
 15 28  1  0
 15 29  1  0
 16 28  1  0
 16 31  1  0
 17 29  1  0
 17 31  1  0
 18 27  1  0
 18 40  1  0
 19 47  1  0
 20 26  1  0
 20 34  1  0
 21 33  1  0
 21 40  1  0
 22 28  1  0
 22 37  1  0
 22 41  1  0
 23 29  1  0
 23 38  1  0
 23 42  1  0
 24 27  1  0
 24 43  1  0
 24 47  1  0
 25 35  1  0
 30 32  1  0
 31 39  1  0
 32 37  1  0
 33 34  1  0
 33 46  1  0
 34 38  1  0
 36 40  1  0
 39 48  1  0
 44 48  1  0
 45 48  1  0
M  END
$$$$
