3vf3_A_0GS_401
     RDKit          3D

 31 33  0  0  0  0  0  0  0  0999 V2000
   29.3810   78.9180   19.8940 Br  0  0  0  0  0  0  0  0  0  0  0  0
   29.0400   73.6260   20.3770 C   0  0  0  0  0  2  0  0  0  0  0  0
   29.7230   72.7210   19.2810 C   0  0  0  0  0  3  0  0  0  0  0  0
   28.8460   71.5130   18.8070 C   0  0  0  0  0  3  0  0  0  0  0  0
   29.5950   70.5510   17.8270 C   0  0  0  0  0  3  0  0  0  0  0  0
   30.1430   71.2460   16.5490 C   0  0  0  0  0  2  0  0  0  0  0  0
   30.1390   77.3370   20.5050 C   0  0  0  0  0  3  0  0  0  0  0  0
   30.1910   73.5540   18.0410 C   0  0  0  0  0  2  0  0  0  0  0  0
   31.3930   77.2540   21.1810 C   0  0  0  0  0  3  0  0  0  0  0  0
   29.3980   68.1270   16.9310 C   0  0  0  0  0  2  0  0  0  0  0  0
   30.4660   67.5790   17.8990 C   0  0  0  0  0  3  0  0  0  0  0  0
   30.0700   67.0210   19.1380 C   0  0  0  0  0  2  0  0  0  0  0  0
   31.0200   66.5080   20.0570 C   0  0  0  0  0  3  0  0  0  0  0  0
   32.4020   66.5860   19.7220 C   0  0  0  0  0  2  0  0  0  0  0  0
   32.8140   67.1400   18.4840 C   0  0  0  0  0  2  0  0  0  0  0  0
   31.8640   75.9770   21.5940 C   0  0  0  0  0  3  0  0  0  0  0  0
   31.8480   67.6460   17.5790 C   0  0  0  0  0  2  0  0  0  0  0  0
   30.5370   65.9020   21.3960 C   0  0  0  0  0  0  0  0  0  0  0  0
   31.0870   64.4690   21.5920 C   0  0  0  0  0  1  0  0  0  0  0  0
   31.1140   74.8060   21.3480 C   0  0  0  0  0  2  0  0  0  0  0  0
   29.8700   74.8920   20.6740 C   0  0  0  0  0  3  0  0  0  0  0  0
   29.3930   76.1630   20.2630 C   0  0  0  0  0  2  0  0  0  0  0  0
   29.1780   65.8110   21.4370 F   0  0  0  0  0  0  0  0  0  0  0  0
   30.9250   66.6790   22.4470 F   0  0  0  0  0  0  0  0  0  0  0  0
   33.0330   75.8630   22.2240 F   0  0  0  0  0  0  0  0  0  0  0  0
   28.7710   69.3580   17.4880 N   0  0  0  0  0  2  0  0  0  0  0  0
   32.1630   78.3410   21.4460 N   0  0  0  0  0  1  0  0  0  0  0  0
   31.6000   73.3340   15.8180 O   0  0  0  0  0  1  0  0  0  0  0  0
   32.3760   72.0310   17.7830 O   0  0  0  0  0  1  0  0  0  0  0  0
   28.4640   70.6540   19.8960 O   0  0  0  0  0  1  0  0  0  0  0  0
   31.2730   72.5680   17.0070 S   0  0  0  0  0  4  0  0  0  0  0  0
  1  7  1  0
  2  3  1  0
  2 21  1  0
  3  4  1  0
  3  8  1  0
  4  5  1  0
  4 30  1  0
  5  6  1  0
  5 26  1  0
  6 31  1  0
  7  9  1  0
  7 22  1  0
  8 31  1  0
  9 16  1  0
  9 27  1  0
 10 11  1  0
 10 26  1  0
 11 12  1  0
 11 17  1  0
 12 13  1  0
 13 14  1  0
 13 18  1  0
 14 15  1  0
 15 17  1  0
 16 20  1  0
 16 25  1  0
 18 19  1  0
 18 23  1  0
 18 24  1  0
 20 21  1  0
 21 22  1  0
 28 31  1  0
 29 31  1  0
M  END
$$$$
