3vg1_A_0GT_401
     RDKit          3D

 48 91  0  0  0  0  0  0  0  0999 V2000
   30.6170   76.4100   20.5720 C   0  0  0  0  0  7  0  0  0  0  0  0
   30.6400   76.3630   20.6390 C   0  0  0  0  0  7  0  0  0  0  0  0
   29.5400   76.3970   19.7790 C   0  0  0  0  0  7  0  0  0  0  0  0
   29.7370   76.3690   19.4930 C   0  0  0  0  0  7  0  0  0  0  0  0
   28.8520   75.2250   19.4060 C   0  0  0  0  0  5  0  0  0  0  0  0
   29.0590   75.1890   19.1360 C   0  0  0  0  0  5  0  0  0  0  0  0
   29.2990   74.0110   19.9010 C   0  0  0  0  0  6  0  0  0  0  0  0
   29.3130   73.9890   19.9310 C   0  0  0  0  0  6  0  0  0  0  0  0
   30.1980   74.0540   21.0040 C   0  0  0  0  0  5  0  0  0  0  0  0
   30.4330   73.9530   20.8140 C   0  0  0  0  0  5  0  0  0  0  0  0
   27.4970   78.2620   18.0100 C   0  0  0  0  0  6  0  0  0  0  0  0
   28.4680   77.9880   17.1190 C   0  0  0  0  0  5  0  0  0  0  0  0
   30.8680   75.2590   21.3520 C   0  0  0  0  0  5  0  0  0  0  0  0
   31.1130   75.1460   21.1790 C   0  0  0  0  0  5  0  0  0  0  0  0
   28.5850   72.6980   19.5180 C   0  0  0  0  0  3  0  0  0  0  0  0
   29.4810   71.7990   18.5950 C   0  0  0  0  0  3  0  0  0  0  0  0
   28.7550   70.4740   18.1840 C   0  0  0  0  0  3  0  0  0  0  0  0
   29.6390   69.5290   17.3040 C   0  0  0  0  0  3  0  0  0  0  0  0
   30.1760   70.1620   15.9900 C   0  0  0  0  0  2  0  0  0  0  0  0
   29.9530   72.5700   17.3210 C   0  0  0  0  0  2  0  0  0  0  0  0
   29.7510   67.0670   16.4890 C   0  0  0  0  0  2  0  0  0  0  0  0
   30.9690   66.7700   17.3790 C   0  0  0  0  0  3  0  0  0  0  0  0
   30.7620   66.2930   18.6920 C   0  0  0  0  0  2  0  0  0  0  0  0
   31.8270   65.9990   19.5880 C   0  0  0  0  0  3  0  0  0  0  0  0
   33.1490   66.2110   19.0910 C   0  0  0  0  0  2  0  0  0  0  0  0
   28.3650   78.4970   18.5770 C   0  0  0  0  0  6  0  0  0  0  0  0
   29.0260   78.3110   17.7800 C   0  0  0  0  0  5  0  0  0  0  0  0
   33.3850   66.6870   17.7750 C   0  0  0  0  0  2  0  0  0  0  0  0
   32.2960   66.9670   16.9150 C   0  0  0  0  0  2  0  0  0  0  0  0
   31.4680   65.4810   21.0280 C   0  0  0  0  0  0  0  0  0  0  0  0
   32.6940   64.8830   21.7910 C   0  0  0  0  0  1  0  0  0  0  0  0
   30.9150   66.6340   21.9230 C   0  0  0  0  0  1  0  0  0  0  0  0
   30.3600   64.3790   20.9760 C   0  0  0  0  0  1  0  0  0  0  0  0
   29.4060   77.8650   19.4680 C   0  0  0  0  0  6  0  0  0  0  0  0
   29.7890   77.7800   18.9680 C   0  0  0  0  0  7  0  0  0  0  0  0
   30.3940   78.4840   20.1410 C   0  0  0  0  0  5  0  0  0  0  0  0
   30.6450   78.4500   19.7600 C   0  0  0  0  0  5  0  0  0  0  0  0
   27.1540   79.0930   19.0320 F   0  0  0  0  0  2  0  0  0  0  0  0
   27.2780   78.1810   16.4870 F   0  0  0  0  0  3  0  0  0  0  0  0
   26.8480   78.6370   16.8760 F   0  0  0  0  0  2  0  0  0  0  0  0
   29.4560   78.6440   16.4510 F   0  0  0  0  0  2  0  0  0  0  0  0
   31.1010   77.6140   20.8180 N   0  0  0  0  0  5  0  0  0  0  0  0
   31.1180   77.6550   20.6880 N   0  0  0  0  0  5  0  0  0  0  0  0
   28.9890   68.2090   17.0760 N   0  0  0  0  0  2  0  0  0  0  0  0
   32.2430   71.2260   17.2860 O   0  0  0  0  0  1  0  0  0  0  0  0
   31.4390   72.3350   15.1800 O   0  0  0  0  0  1  0  0  0  0  0  0
   28.4120   69.7400   19.3760 O   0  0  0  0  0  1  0  0  0  0  0  0
   31.1560   71.6080   16.4040 S   0  0  0  0  0  4  0  0  0  0  0  0
  1  2  1  0
  1  3  1  0
  1  4  1  0
  1 13  1  0
  1 14  1  0
  1 42  1  0
  1 43  1  0
  2  3  1  0
  2  4  1  0
  2 13  1  0
  2 14  1  0
  2 42  1  0
  2 43  1  0
  3  4  1  0
  3  5  1  0
  3  6  1  0
  3 34  1  0
  3 35  1  0
  4  5  1  0
  4  6  1  0
  4 34  1  0
  4 35  1  0
  5  6  1  0
  5  7  1  0
  5  8  1  0
  6  7  1  0
  6  8  1  0
  7  8  1  0
  7  9  1  0
  7 10  1  0
  7 15  1  0
  8  9  1  0
  8 10  1  0
  8 15  1  0
  9 10  1  0
  9 13  1  0
  9 14  1  0
 10 13  1  0
 10 14  1  0
 11 12  1  0
 11 26  1  0
 11 27  1  0
 11 38  1  0
 11 39  1  0
 11 40  1  0
 12 26  1  0
 12 27  1  0
 12 39  1  0
 12 41  1  0
 13 14  1  0
 15 16  1  0
 16 17  1  0
 16 20  1  0
 17 18  1  0
 17 47  1  0
 18 19  1  0
 18 44  1  0
 19 48  1  0
 20 48  1  0
 21 22  1  0
 21 44  1  0
 22 23  1  0
 22 29  1  0
 23 24  1  0
 24 25  1  0
 24 30  1  0
 25 28  1  0
 26 27  1  0
 26 34  1  0
 26 35  1  0
 26 38  1  0
 27 35  1  0
 27 41  1  0
 28 29  1  0
 30 31  1  0
 30 32  1  0
 30 33  1  0
 34 35  1  0
 34 36  1  0
 34 37  1  0
 35 36  1  0
 35 37  1  0
 36 37  1  0
 36 42  1  0
 36 43  1  0
 37 42  1  0
 37 43  1  0
 39 40  1  0
 42 43  1  0
 45 48  1  0
 46 48  1  0
M  END
$$$$
