3vv6_A_B00_510
     RDKit          3D

 18 20  0  0  0  0  0  0  0  0999 V2000
   16.4250   41.2790   -9.4800 C   0  0  0  0  0  3  0  0  0  0  0  0
   21.1460   39.3420   -8.9660 C   0  0  0  0  0  2  0  0  0  0  0  0
   21.0330   39.5140   -7.5870 C   0  0  0  0  0  2  0  0  0  0  0  0
   20.0090   38.8750   -6.8840 C   0  0  0  0  0  2  0  0  0  0  0  0
   19.1080   38.0600   -7.5740 C   0  0  0  0  0  2  0  0  0  0  0  0
   17.7090   37.5820  -11.0010 C   0  0  0  0  0  2  0  0  0  0  0  0
   16.7390   40.0160   -9.9850 C   0  0  0  0  0  2  0  0  0  0  0  0
   16.4690   38.8640   -9.2310 C   0  0  0  0  0  3  0  0  0  0  0  0
   15.5480   40.1920   -7.4660 C   0  0  0  0  0  3  0  0  0  0  0  0
   15.4900   42.7190   -7.6850 C   0  0  0  0  0  1  0  0  0  0  0  0
   16.7880   37.5080   -9.7750 C   0  0  0  0  0  3  0  0  0  0  0  0
   18.2420   37.0070   -9.6860 C   0  0  0  0  0  3  0  0  0  0  0  0
   19.2070   37.8890   -8.9650 C   0  0  0  0  0  3  0  0  0  0  0  0
   20.2450   38.5250   -9.6580 C   0  0  0  0  0  2  0  0  0  0  0  0
   15.8720   38.9850   -8.0040 N   0  0  0  0  0  2  0  0  0  0  0  0
   15.8070   41.3830   -8.2080 N   0  0  0  0  0  0  0  0  0  0  0  0
   14.9690   40.2420   -6.2300 N   0  0  0  0  0  1  0  0  0  0  0  0
   16.6850   42.3020  -10.1490 O   0  0  0  0  0  1  0  0  0  0  0  0
  1  7  1  0
  1 16  1  0
  1 18  1  0
  2  3  1  0
  2 14  1  0
  3  4  1  0
  4  5  1  0
  5 13  1  0
  6 11  1  0
  6 12  1  0
  7  8  1  0
  8 11  1  0
  8 15  1  0
  9 15  1  0
  9 16  1  0
  9 17  1  0
 10 16  1  0
 11 12  1  0
 12 13  1  0
 13 14  1  0
M  END
$$$$
