3vv7_A_0B1_509
     RDKit          3D

 26 29  0  0  0  0  0  0  0  0999 V2000
  -15.9080  -41.5710   -9.7390 C   0  0  0  0  0  3  0  0  0  0  0  0
  -20.1290  -39.3320   -7.1310 C   0  0  0  0  0  3  0  0  0  0  0  0
  -21.1530  -39.9140   -7.8880 C   0  0  0  0  0  2  0  0  0  0  0  0
  -21.1950  -39.6960   -9.2640 C   0  0  0  0  0  2  0  0  0  0  0  0
  -20.2210  -38.8950   -9.8730 C   0  0  0  0  0  2  0  0  0  0  0  0
  -20.0920  -39.5630   -5.6630 C   0  0  0  0  0  3  0  0  0  0  0  0
  -20.6380  -40.7370   -5.1580 C   0  0  0  0  0  2  0  0  0  0  0  0
  -20.6420  -40.9900   -3.7890 C   0  0  0  0  0  3  0  0  0  0  0  0
  -21.3380  -43.3460   -4.0910 C   0  0  0  0  0  1  0  0  0  0  0  0
  -20.1000  -40.0390   -2.9260 C   0  0  0  0  0  2  0  0  0  0  0  0
  -19.5410  -38.8580   -3.4200 C   0  0  0  0  0  2  0  0  0  0  0  0
  -16.2890  -40.3040  -10.1980 C   0  0  0  0  0  2  0  0  0  0  0  0
  -19.5490  -38.6110   -4.7940 C   0  0  0  0  0  2  0  0  0  0  0  0
  -17.5800  -37.9910  -11.0690 C   0  0  0  0  0  2  0  0  0  0  0  0
  -16.2780  -39.2020   -9.3200 C   0  0  0  0  0  3  0  0  0  0  0  0
  -15.4950  -40.5980   -7.5260 C   0  0  0  0  0  3  0  0  0  0  0  0
  -15.1220  -43.0760   -7.9240 C   0  0  0  0  0  1  0  0  0  0  0  0
  -16.6700  -37.8580   -9.8340 C   0  0  0  0  0  3  0  0  0  0  0  0
  -18.1540  -37.4340   -9.7690 C   0  0  0  0  0  3  0  0  0  0  0  0
  -19.1790  -38.3200   -9.1240 C   0  0  0  0  0  3  0  0  0  0  0  0
  -19.1610  -38.5300   -7.7390 C   0  0  0  0  0  2  0  0  0  0  0  0
  -15.8760  -39.3700   -8.0190 N   0  0  0  0  0  2  0  0  0  0  0  0
  -15.5030  -41.7340   -8.3890 N   0  0  0  0  0  0  0  0  0  0  0  0
  -15.1090  -40.7460   -6.2170 N   0  0  0  0  0  1  0  0  0  0  0  0
  -15.9190  -42.5680  -10.5060 O   0  0  0  0  0  1  0  0  0  0  0  0
  -21.1810  -42.1640   -3.2940 O   0  0  0  0  0  0  0  0  0  0  0  0
  1 12  1  0
  1 23  1  0
  1 25  1  0
  2  3  1  0
  2  6  1  0
  2 21  1  0
  3  4  1  0
  4  5  1  0
  5 20  1  0
  6  7  1  0
  6 13  1  0
  7  8  1  0
  8 10  1  0
  8 26  1  0
  9 26  1  0
 10 11  1  0
 11 13  1  0
 12 15  1  0
 14 18  1  0
 14 19  1  0
 15 18  1  0
 15 22  1  0
 16 22  1  0
 16 23  1  0
 16 24  1  0
 17 23  1  0
 18 19  1  0
 19 20  1  0
 20 21  1  0
M  END
$$$$
