3wb5_A_0B4_507
     RDKit          3D

 19 21  0  0  0  0  0  0  0  0999 V2000
   18.0070   36.1220   -8.4250 C   0  0  0  0  0  1  0  0  0  0  0  0
   21.4960   39.2280   -7.0720 C   0  0  0  0  0  3  0  0  0  0  0  0
   22.6320   38.5240   -7.4520 C   0  0  0  0  0  2  0  0  0  0  0  0
   23.8080   39.2100   -7.7240 C   0  0  0  0  0  2  0  0  0  0  0  0
   23.8470   40.5950   -7.6250 C   0  0  0  0  0  2  0  0  0  0  0  0
   22.7100   41.2970   -7.2500 C   0  0  0  0  0  2  0  0  0  0  0  0
   21.5330   40.6130   -6.9740 C   0  0  0  0  0  2  0  0  0  0  0  0
   18.3300   37.5790   -8.1310 C   0  0  0  0  0  0  0  0  0  0  0  0
   17.0540   39.0920   -6.7740 C   0  0  0  0  0  3  0  0  0  0  0  0
   16.9560   41.4830   -7.1870 C   0  0  0  0  0  1  0  0  0  0  0  0
   17.7680   39.8640   -8.8190 C   0  0  0  0  0  3  0  0  0  0  0  0
   17.8640   38.4370   -9.2900 C   0  0  0  0  0  2  0  0  0  0  0  0
   19.8460   37.7220   -8.0230 C   0  0  0  0  0  3  0  0  0  0  0  0
   20.2380   38.5120   -6.7780 C   0  0  0  0  0  3  0  0  0  0  0  0
   20.4200   37.0000   -6.8080 C   0  0  0  0  0  2  0  0  0  0  0  0
   17.6810   38.0020   -6.9000 N   0  0  0  0  0  2  0  0  0  0  0  0
   16.2080   39.2320   -5.7550 N   0  0  0  0  0  1  0  0  0  0  0  0
   17.2590   40.1190   -7.6050 N   0  0  0  0  0  0  0  0  0  0  0  0
   18.1760   40.7490   -9.5500 O   0  0  0  0  0  1  0  0  0  0  0  0
  1  8  1  0
  2  3  1  0
  2  7  1  0
  2 14  1  0
  3  4  1  0
  4  5  1  0
  5  6  1  0
  6  7  1  0
  8 12  1  0
  8 13  1  0
  8 16  1  0
  9 16  1  0
  9 17  1  0
  9 18  1  0
 10 18  1  0
 11 12  1  0
 11 18  1  0
 11 19  1  0
 13 14  1  0
 13 15  1  0
 14 15  1  0
M  END
$$$$
