3zmg_A_6Z0_1448
     RDKit          3D

 28 30  0  0  0  0  0  0  0  0999 V2000
  -20.4280   43.4170    1.7080 C   0  0  0  0  0  3  0  0  0  0  0  0
  -20.2130   44.0230    0.4280 C   0  0  0  0  0  2  0  0  0  0  0  0
  -19.6310   40.2560    7.1000 C   0  0  0  0  0  3  0  0  0  0  0  0
  -20.6660   39.8530    7.9530 C   0  0  0  0  0  2  0  0  0  0  0  0
  -20.3610   39.2870    9.1700 C   0  0  0  0  0  2  0  0  0  0  0  0
  -19.0540   39.1320    9.5560 C   0  0  0  0  0  3  0  0  0  0  0  0
  -18.0100   39.5260    8.7150 C   0  0  0  0  0  3  0  0  0  0  0  0
  -18.3180   40.0960    7.5270 C   0  0  0  0  0  2  0  0  0  0  0  0
  -21.5890   43.6970    2.4360 C   0  0  0  0  0  2  0  0  0  0  0  0
  -16.3260   37.9570    9.7040 C   0  0  0  0  0  1  0  0  0  0  0  0
  -15.0710   40.5010    7.6170 C   0  0  0  0  0  3  0  0  0  0  0  0
  -16.1120   40.4920   10.0690 C   0  0  0  0  0  0  0  0  0  0  0  0
  -21.7590   43.0680    3.6480 C   0  0  0  0  0  2  0  0  0  0  0  0
  -20.8190   42.1320    4.0770 C   0  0  0  0  0  3  0  0  0  0  0  0
  -16.5790   39.3550    9.1250 C   0  0  0  0  0  0  0  0  0  0  0  0
  -19.5260   42.4900    2.2200 C   0  0  0  0  0  2  0  0  0  0  0  0
  -16.0340   41.8090    9.3270 C   0  0  0  0  0  2  0  0  0  0  0  0
  -20.9470   41.4840    5.3860 C   0  0  0  0  0  3  0  0  0  0  0  0
  -18.7580   38.5860   10.7390 F   0  0  0  0  0  0  0  0  0  0  0  0
  -14.8480   40.2290   10.6070 F   0  0  0  0  0  0  0  0  0  0  0  0
  -17.0180   40.6140   11.1340 F   0  0  0  0  0  0  0  0  0  0  0  0
  -20.0060   44.4920   -0.5990 N   0  0  0  0  0  1  0  0  0  0  0  0
  -14.2580   40.5230    6.5210 N   0  0  0  0  0  1  0  0  0  0  0  0
  -15.7170   39.4190    7.9390 N   0  0  0  0  0  2  0  0  0  0  0  0
  -19.7380   41.8690    3.3570 N   0  0  0  0  0  2  0  0  0  0  0  0
  -19.8300   40.8870    5.8690 N   0  0  0  0  0  2  0  0  0  0  0  0
  -15.0900   41.6650    8.2420 O   0  0  0  0  0  0  0  0  0  0  0  0
  -22.0160   41.5370    5.9750 O   0  0  0  0  0  1  0  0  0  0  0  0
  1  2  1  0
  1  9  1  0
  1 16  1  0
  2 22  1  0
  3  4  1  0
  3  8  1  0
  3 26  1  0
  4  5  1  0
  5  6  1  0
  6  7  1  0
  6 19  1  0
  7  8  1  0
  7 15  1  0
  9 13  1  0
 10 15  1  0
 11 23  1  0
 11 24  1  0
 11 27  1  0
 12 15  1  0
 12 17  1  0
 12 20  1  0
 12 21  1  0
 13 14  1  0
 14 18  1  0
 14 25  1  0
 15 24  1  0
 16 25  1  0
 17 27  1  0
 18 26  1  0
 18 28  1  0
M  END
$$$$
