3zov_A_WZV_1447
     RDKit          3D

 31 33  0  0  0  0  0  0  0  0999 V2000
  -16.7980   38.8270   94.5880 C   0  0  0  0  0  0  0  0  0  0  0  0
  -19.2810   38.8080   94.9800 C   0  0  0  0  0  2  0  0  0  0  0  0
  -18.2080   39.1840   94.1630 C   0  0  0  0  0  3  0  0  0  0  0  0
  -18.4930   39.8850   92.9890 C   0  0  0  0  0  2  0  0  0  0  0  0
  -16.7000   37.3780   95.0150 C   0  0  0  0  0  1  0  0  0  0  0  0
  -15.3050   42.6470   93.6350 C   0  0  0  0  0  1  0  0  0  0  0  0
  -20.7170   43.4290   87.2460 C   0  0  0  0  0  3  0  0  0  0  0  0
  -21.8840   43.6570   88.0040 C   0  0  0  0  0  2  0  0  0  0  0  0
  -16.4440   39.6800   95.7780 C   0  0  0  0  0  2  0  0  0  0  0  0
  -22.0430   43.0050   89.2230 C   0  0  0  0  0  2  0  0  0  0  0  0
  -21.0270   42.1470   89.6430 C   0  0  0  0  0  3  0  0  0  0  0  0
  -19.7340   42.5670   87.7080 C   0  0  0  0  0  2  0  0  0  0  0  0
  -21.1580   41.4320   90.9410 C   0  0  0  0  0  3  0  0  0  0  0  0
  -21.7540   44.3930   85.3680 C   0  0  0  0  0  2  0  0  0  0  0  0
  -21.3830   45.2430   84.1830 C   0  0  0  0  0  0  0  0  0  0  0  0
  -16.0910   41.0580   95.2920 C   0  0  0  0  0  3  0  0  0  0  0  0
  -15.3530   40.2160   93.2660 C   0  0  0  0  0  3  0  0  0  0  0  0
  -19.8150   40.1860   92.6340 C   0  0  0  0  0  3  0  0  0  0  0  0
  -20.8710   39.8140   93.4700 C   0  0  0  0  0  2  0  0  0  0  0  0
  -20.5970   39.1210   94.6420 C   0  0  0  0  0  2  0  0  0  0  0  0
  -20.5180   46.1780   84.5250 F   0  0  0  0  0  0  0  0  0  0  0  0
  -20.8670   44.4100   83.3080 F   0  0  0  0  0  0  0  0  0  0  0  0
  -22.4600   45.8340   83.7230 F   0  0  0  0  0  0  0  0  0  0  0  0
  -20.0340   40.9000   91.4470 N   0  0  0  0  0  2  0  0  0  0  0  0
  -14.7060   40.3670   92.1000 N   0  0  0  0  0  1  0  0  0  0  0  0
  -19.9160   41.9570   88.8870 N   0  0  0  0  0  2  0  0  0  0  0  0
  -15.5670   41.2710   94.0720 N   0  0  0  0  0  0  0  0  0  0  0  0
  -15.7920   39.0720   93.5570 N   0  0  0  0  0  2  0  0  0  0  0  0
  -16.3440   41.9710   96.0360 O   0  0  0  0  0  1  0  0  0  0  0  0
  -22.2770   41.3770   91.4270 O   0  0  0  0  0  1  0  0  0  0  0  0
  -20.5530   44.0520   86.0420 O   0  0  0  0  0  0  0  0  0  0  0  0
  1  3  1  0
  1  5  1  0
  1  9  1  0
  1 28  1  0
  2  3  1  0
  2 20  1  0
  3  4  1  0
  4 18  1  0
  6 27  1  0
  7  8  1  0
  7 12  1  0
  7 31  1  0
  8 10  1  0
  9 16  1  0
 10 11  1  0
 11 13  1  0
 11 26  1  0
 12 26  1  0
 13 24  1  0
 13 30  1  0
 14 15  1  0
 14 31  1  0
 15 21  1  0
 15 22  1  0
 15 23  1  0
 16 27  1  0
 16 29  1  0
 17 25  1  0
 17 27  1  0
 17 28  1  0
 18 19  1  0
 18 24  1  0
 19 20  1  0
M  END
$$$$
