4acx_A_S8Z_1504
     RDKit          3D

 33 36  0  0  0  0  0  0  0  0999 V2000
    2.0910   -3.0830  -17.2670 C   0  0  0  0  0  1  0  0  0  0  0  0
    5.7050    1.3310  -21.5390 C   0  0  0  0  0  3  0  0  0  0  0  0
    5.0440    0.3150  -20.8770 C   0  0  0  0  0  2  0  0  0  0  0  0
    5.4780    2.7600  -21.1240 C   0  0  0  0  0  0  0  0  0  0  0  0
    6.3040    3.0030  -19.8920 C   0  0  0  0  0  3  0  0  0  0  0  0
    8.1670    3.0600  -18.3720 C   0  0  0  0  0  2  0  0  0  0  0  0
    7.3630    4.0970  -17.6060 C   0  0  0  0  0  0  0  0  0  0  0  0
    5.8770    3.7870  -17.6080 C   0  0  0  0  0  2  0  0  0  0  0  0
    4.1570    3.4310  -19.4440 C   0  0  0  0  0  3  0  0  0  0  0  0
    5.7530    3.7370  -22.2430 C   0  0  0  0  0  3  0  0  0  0  0  0
    4.8400    3.8630  -23.2770 C   0  0  0  0  0  2  0  0  0  0  0  0
    5.0710    4.7400  -24.3180 C   0  0  0  0  0  2  0  0  0  0  0  0
    6.2210    5.5080  -24.3260 C   0  0  0  0  0  3  0  0  0  0  0  0
    7.1430    5.3930  -23.3090 C   0  0  0  0  0  2  0  0  0  0  0  0
    6.9020    4.5100  -22.2770 C   0  0  0  0  0  2  0  0  0  0  0  0
    3.2650   -3.8510  -19.0790 C   0  0  0  0  0  2  0  0  0  0  0  0
    5.5030    7.0820  -26.0880 C   0  0  0  0  0  3  0  0  0  0  0  0
    3.9720   -2.8360  -19.8530 C   0  0  0  0  0  2  0  0  0  0  0  0
    4.5550   -2.0000  -20.4840 C   0  0  0  0  0  2  0  0  0  0  0  0
    5.2490   -1.0030  -21.2210 C   0  0  0  0  0  3  0  0  0  0  0  0
    6.1190   -1.3360  -22.2390 C   0  0  0  0  0  2  0  0  0  0  0  0
    6.7960   -0.3300  -22.9000 C   0  0  0  0  0  2  0  0  0  0  0  0
    6.5970    0.9880  -22.5400 C   0  0  0  0  0  2  0  0  0  0  0  0
    7.5650    5.3300  -18.1420 F   0  0  0  0  0  0  0  0  0  0  0  0
    7.8190    4.1630  -16.3270 F   0  0  0  0  0  0  0  0  0  0  0  0
    6.0270    8.2040  -26.6500 F   0  0  0  0  0  0  0  0  0  0  0  0
    5.0260    6.2700  -27.0690 F   0  0  0  0  0  0  0  0  0  0  0  0
    7.5520    2.7400  -19.6670 N   0  0  0  0  0  2  0  0  0  0  0  0
    5.4370    3.5580  -18.9780 N   0  0  0  0  0  0  0  0  0  0  0  0
    4.1130    2.9720  -20.6450 N   0  0  0  0  0  2  0  0  0  0  0  0
    3.0320    3.7510  -18.7270 N   0  0  0  0  0  1  0  0  0  0  0  0
    3.3560   -3.5730  -17.6880 O   0  0  0  0  0  0  0  0  0  0  0  0
    6.5150    6.3990  -25.3470 O   0  0  0  0  0  0  0  0  0  0  0  0
  1 32  1  0
  2  3  1  0
  2  4  1  0
  2 23  1  0
  3 20  1  0
  4  5  1  0
  4 10  1  0
  4 30  1  0
  5 28  1  0
  5 29  1  0
  6  7  1  0
  6 28  1  0
  7  8  1  0
  7 24  1  0
  7 25  1  0
  8 29  1  0
  9 29  1  0
  9 30  1  0
  9 31  1  0
 10 11  1  0
 10 15  1  0
 11 12  1  0
 12 13  1  0
 13 14  1  0
 13 33  1  0
 14 15  1  0
 16 18  1  0
 16 32  1  0
 17 26  1  0
 17 27  1  0
 17 33  1  0
 18 19  1  0
 19 20  1  0
 20 21  1  0
 21 22  1  0
 22 23  1  0
M  END
$$$$
