4b05_A_32D_1391
     RDKit          3D

 32 36  0  0  0  0  0  0  0  0999 V2000
    8.1610    3.3190  -18.3450 C   0  0  0  0  0  2  0  0  0  0  0  0
    5.4540    2.7750  -21.0260 C   0  0  0  0  0  0  0  0  0  0  0  0
    5.6710    1.3070  -21.3290 C   0  0  0  0  0  3  0  0  0  0  0  0
    6.5360    0.9060  -22.3370 C   0  0  0  0  0  2  0  0  0  0  0  0
    6.7260   -0.4340  -22.6020 C   0  0  0  0  0  2  0  0  0  0  0  0
    6.0860   -1.3950  -21.8400 C   0  0  0  0  0  2  0  0  0  0  0  0
    5.2340   -1.0330  -20.8130 C   0  0  0  0  0  3  0  0  0  0  0  0
    5.0460    0.3230  -20.5780 C   0  0  0  0  0  2  0  0  0  0  0  0
    4.6280   -2.0420  -19.9520 C   0  0  0  0  0  3  0  0  0  0  0  0
    5.3190   -3.1660  -19.5380 C   0  0  0  0  0  2  0  0  0  0  0  0
    7.6400    2.9580  -19.5770 C   0  0  0  0  0  2  0  0  0  0  0  0
    3.6220   -3.8310  -18.2040 C   0  0  0  0  0  2  0  0  0  0  0  0
    3.3640   -1.9370  -19.4080 C   0  0  0  0  0  2  0  0  0  0  0  0
    5.7520    3.6940  -22.2230 C   0  0  0  0  0  3  0  0  0  0  0  0
    6.9300    4.4150  -22.1970 C   0  0  0  0  0  2  0  0  0  0  0  0
    7.2710    5.2430  -23.2350 C   0  0  0  0  0  2  0  0  0  0  0  0
    5.3590    4.7380  -24.3740 C   0  0  0  0  0  3  0  0  0  0  0  0
    4.9460    3.8690  -23.3600 C   0  0  0  0  0  2  0  0  0  0  0  0
    6.2770    3.0760  -19.7920 C   0  0  0  0  0  3  0  0  0  0  0  0
    4.5960    4.9460  -25.6540 C   0  0  0  0  0  3  0  0  0  0  0  0
    5.4800    3.5280  -18.7840 C   0  0  0  0  0  3  0  0  0  0  0  0
    5.9770    3.9060  -17.5480 C   0  0  0  0  0  3  0  0  0  0  0  0
    7.3400    3.7970  -17.3350 C   0  0  0  0  0  2  0  0  0  0  0  0
    4.1170    3.5120  -19.3240 C   0  0  0  0  0  3  0  0  0  0  0  0
    3.4530    5.7240  -25.6200 F   0  0  0  0  0  0  0  0  0  0  0  0
    4.3210    3.7920  -26.3130 F   0  0  0  0  0  0  0  0  0  0  0  0
    5.2130    4.4070  -16.5580 F   0  0  0  0  0  0  0  0  0  0  0  0
    4.8560   -4.0740  -18.6700 N   0  0  0  0  0  2  0  0  0  0  0  0
    2.8260   -2.8090  -18.5430 N   0  0  0  0  0  2  0  0  0  0  0  0
    6.5160    5.4010  -24.3230 N   0  0  0  0  0  2  0  0  0  0  0  0
    3.0330    3.8580  -18.5610 N   0  0  0  0  0  1  0  0  0  0  0  0
    4.0820    3.0720  -20.5470 N   0  0  0  0  0  2  0  0  0  0  0  0
  1 11  1  0
  1 23  1  0
  2  3  1  0
  2 14  1  0
  2 19  1  0
  2 32  1  0
  3  4  1  0
  3  8  1  0
  4  5  1  0
  5  6  1  0
  6  7  1  0
  7  8  1  0
  7  9  1  0
  9 10  1  0
  9 13  1  0
 10 28  1  0
 11 19  1  0
 12 28  1  0
 12 29  1  0
 13 29  1  0
 14 15  1  0
 14 18  1  0
 15 16  1  0
 16 30  1  0
 17 18  1  0
 17 20  1  0
 17 30  1  0
 19 21  1  0
 20 25  1  0
 20 26  1  0
 21 22  1  0
 21 24  1  0
 22 23  1  0
 22 27  1  0
 24 31  1  0
 24 32  1  0
M  END
$$$$
