4b0q_A_GMF_1385
     RDKit          3D

 25 27  0  0  0  0  0  0  0  0999 V2000
    1.4130   -3.1140  -16.4110 C   0  0  0  0  0  1  0  0  0  0  0  0
    5.6970    1.0660  -21.1650 C   0  0  0  0  0  3  0  0  0  0  0  0
    6.5070    0.6460  -22.2010 C   0  0  0  0  0  2  0  0  0  0  0  0
    6.6250   -0.6990  -22.4890 C   0  0  0  0  0  2  0  0  0  0  0  0
    5.9700   -1.6420  -21.7180 C   0  0  0  0  0  2  0  0  0  0  0  0
    5.1890   -1.2560  -20.6410 C   0  0  0  0  0  3  0  0  0  0  0  0
    5.0610    0.1050  -20.3860 C   0  0  0  0  0  2  0  0  0  0  0  0
    4.5890   -2.2540  -19.7620 C   0  0  0  0  0  3  0  0  0  0  0  0
    5.3050   -3.3680  -19.3560 C   0  0  0  0  0  2  0  0  0  0  0  0
    4.8170   -4.2950  -18.4560 C   0  0  0  0  0  2  0  0  0  0  0  0
    3.5800   -4.0770  -17.8770 C   0  0  0  0  0  2  0  0  0  0  0  0
    3.3480   -2.0820  -19.1930 C   0  0  0  0  0  2  0  0  0  0  0  0
    5.6010    2.5340  -20.8510 C   0  0  0  0  0  3  0  0  0  0  0  0
    2.8550   -2.9630  -18.2520 C   0  0  0  0  0  3  0  0  0  0  0  0
    4.3190    3.3190  -18.8880 C   0  0  0  0  0  3  0  0  0  0  0  0
    5.9350    3.4950  -21.9630 C   0  0  0  0  0  3  0  0  0  0  0  0
    7.1690    4.1200  -21.9720 C   0  0  0  0  0  2  0  0  0  0  0  0
    7.4670    5.0020  -22.9940 C   0  0  0  0  0  2  0  0  0  0  0  0
    5.4450    4.6600  -23.9640 C   0  0  0  0  0  2  0  0  0  0  0  0
    5.0470    3.7700  -22.9850 C   0  0  0  0  0  2  0  0  0  0  0  0
    5.2720    3.2730  -18.0120 N   0  0  0  0  0  1  0  0  0  0  0  0
    4.3730    2.9050  -20.1860 N   0  0  0  0  0  2  0  0  0  0  0  0
    3.0600    3.7770  -18.6290 N   0  0  0  0  0  1  0  0  0  0  0  0
    6.6260    5.2920  -23.9930 N   0  0  0  0  0  2  0  0  0  0  0  0
    1.5980   -2.6570  -17.7490 O   0  0  0  0  0  0  0  0  0  0  0  0
  1 25  1  0
  2  3  1  0
  2  7  1  0
  2 13  1  0
  3  4  1  0
  4  5  1  0
  5  6  1  0
  6  7  1  0
  6  8  1  0
  8  9  1  0
  8 12  1  0
  9 10  1  0
 10 11  1  0
 11 14  1  0
 12 14  1  0
 13 16  1  0
 13 22  1  0
 14 25  1  0
 15 21  1  0
 15 22  1  0
 15 23  1  0
 16 17  1  0
 16 20  1  0
 17 18  1  0
 18 24  1  0
 19 20  1  0
 19 24  1  0
M  END
$$$$
