4b1d_A_6TG_1505
     RDKit          3D

 29 32  0  0  0  0  0  0  0  0999 V2000
    4.7110    4.3820  -25.5000 C   0  0  0  0  0  1  0  0  0  0  0  0
    8.4090    6.2260  -22.5500 C   0  0  0  0  0  1  0  0  0  0  0  0
    5.4510    2.5860  -20.9070 C   0  0  0  0  0  0  0  0  0  0  0  0
    5.3770    3.2130  -18.8030 C   0  0  0  0  0  3  0  0  0  0  0  0
    4.0100    3.2740  -19.3710 C   0  0  0  0  0  3  0  0  0  0  0  0
    5.6500    3.4900  -17.3550 C   0  0  0  0  0  1  0  0  0  0  0  0
    5.7170    1.1390  -21.2760 C   0  0  0  0  0  3  0  0  0  0  0  0
    6.5340    0.7710  -22.3420 C   0  0  0  0  0  2  0  0  0  0  0  0
    5.4900    4.4570  -24.2210 C   0  0  0  0  0  3  0  0  0  0  0  0
    6.7660   -0.5690  -22.6290 C   0  0  0  0  0  2  0  0  0  0  0  0
    6.2090   -1.5590  -21.8380 C   0  0  0  0  0  2  0  0  0  0  0  0
    5.4220   -1.2220  -20.7490 C   0  0  0  0  0  3  0  0  0  0  0  0
    5.1880    0.1240  -20.4880 C   0  0  0  0  0  2  0  0  0  0  0  0
    4.8680   -2.2350  -19.8590 C   0  0  0  0  0  3  0  0  0  0  0  0
    3.5810   -2.1690  -19.3630 C   0  0  0  0  0  2  0  0  0  0  0  0
    3.9180   -3.9960  -18.0730 C   0  0  0  0  0  2  0  0  0  0  0  0
    5.6180   -3.3000  -19.3790 C   0  0  0  0  0  2  0  0  0  0  0  0
    5.1330    3.5910  -23.2100 C   0  0  0  0  0  2  0  0  0  0  0  0
    5.8290    3.5610  -22.0080 C   0  0  0  0  0  3  0  0  0  0  0  0
    6.8880    4.4360  -21.8400 C   0  0  0  0  0  2  0  0  0  0  0  0
    7.2550    5.3240  -22.8340 C   0  0  0  0  0  3  0  0  0  0  0  0
    6.5450    5.3440  -24.0230 C   0  0  0  0  0  3  0  0  0  0  0  0
    6.1430    7.4240  -25.0090 C   0  0  0  0  0  1  0  0  0  0  0  0
    6.2380    2.8010  -19.6680 N   0  0  0  0  0  2  0  0  0  0  0  0
    4.0420    2.8650  -20.5910 N   0  0  0  0  0  2  0  0  0  0  0  0
    2.9360    3.6680  -18.6110 N   0  0  0  0  0  1  0  0  0  0  0  0
    3.0810   -3.0170  -18.4550 N   0  0  0  0  0  2  0  0  0  0  0  0
    5.1730   -4.2120  -18.4970 N   0  0  0  0  0  2  0  0  0  0  0  0
    6.9330    6.2180  -25.0380 O   0  0  0  0  0  0  0  0  0  0  0  0
  1  9  1  0
  2 21  1  0
  3  7  1  0
  3 19  1  0
  3 24  1  0
  3 25  1  0
  4  5  1  0
  4  6  1  0
  4 24  1  0
  5 25  1  0
  5 26  1  0
  7  8  1  0
  7 13  1  0
  8 10  1  0
  9 18  1  0
  9 22  1  0
 10 11  1  0
 11 12  1  0
 12 13  1  0
 12 14  1  0
 14 15  1  0
 14 17  1  0
 15 27  1  0
 16 27  1  0
 16 28  1  0
 17 28  1  0
 18 19  1  0
 19 20  1  0
 20 21  1  0
 21 22  1  0
 22 29  1  0
 23 29  1  0
M  END
$$$$
