4b77_A_54M_1504
     RDKit          3D

 26 29  0  0  0  0  0  0  0  0999 V2000
    5.0520    4.7760  -24.0290 C   0  0  0  0  0  2  0  0  0  0  0  0
    6.7480   -0.5180  -22.6040 C   0  0  0  0  0  2  0  0  0  0  0  0
    6.2320   -1.5130  -21.7850 C   0  0  0  0  0  2  0  0  0  0  0  0
    5.4360   -1.1330  -20.6940 C   0  0  0  0  0  3  0  0  0  0  0  0
    5.2280    0.2150  -20.4040 C   0  0  0  0  0  2  0  0  0  0  0  0
    5.4460    3.3210  -18.5090 C   0  0  0  0  0  2  0  0  0  0  0  0
    5.5780    6.8520  -25.8940 C   0  0  0  0  0  1  0  0  0  0  0  0
    4.0570    3.2780  -19.1430 C   0  0  0  0  0  3  0  0  0  0  0  0
    6.4280    3.0100  -19.6600 C   0  0  0  0  0  2  0  0  0  0  0  0
    6.3390    5.3480  -24.1550 C   0  0  0  0  0  3  0  0  0  0  0  0
    4.8700   -2.1490  -19.7350 C   0  0  0  0  0  3  0  0  0  0  0  0
    5.7020   -3.1800  -19.2480 C   0  0  0  0  0  2  0  0  0  0  0  0
    3.9720   -3.9790  -17.9470 C   0  0  0  0  0  2  0  0  0  0  0  0
    3.5460   -2.0900  -19.2550 C   0  0  0  0  0  2  0  0  0  0  0  0
    7.3460    5.0280  -23.2550 C   0  0  0  0  0  2  0  0  0  0  0  0
    7.0800    4.1670  -22.1920 C   0  0  0  0  0  2  0  0  0  0  0  0
    5.8020    3.5980  -22.0490 C   0  0  0  0  0  3  0  0  0  0  0  0
    4.8000    3.8810  -22.9860 C   0  0  0  0  0  2  0  0  0  0  0  0
    5.5010    2.6590  -20.8840 C   0  0  0  0  0  0  0  0  0  0  0  0
    5.7440    1.2110  -21.2310 C   0  0  0  0  0  3  0  0  0  0  0  0
    6.5310    0.8410  -22.3260 C   0  0  0  0  0  2  0  0  0  0  0  0
    4.1270    2.9240  -20.3920 N   0  0  0  0  0  2  0  0  0  0  0  0
    2.8860    3.5640  -18.4600 N   0  0  0  0  0  1  0  0  0  0  0  0
    3.1620   -3.0270  -18.3680 N   0  0  0  0  0  2  0  0  0  0  0  0
    5.2330   -4.0730  -18.3740 N   0  0  0  0  0  2  0  0  0  0  0  0
    6.6450    6.2270  -25.1580 O   0  0  0  0  0  0  0  0  0  0  0  0
  1 10  1  0
  1 18  1  0
  2  3  1  0
  2 21  1  0
  3  4  1  0
  4  5  1  0
  4 11  1  0
  5 20  1  0
  6  8  1  0
  6  9  1  0
  7 26  1  0
  8 22  1  0
  8 23  1  0
  9 19  1  0
 10 15  1  0
 10 26  1  0
 11 12  1  0
 11 14  1  0
 12 25  1  0
 13 24  1  0
 13 25  1  0
 14 24  1  0
 15 16  1  0
 16 17  1  0
 17 18  1  0
 17 19  1  0
 19 20  1  0
 19 22  1  0
 20 21  1  0
M  END
$$$$
