4bek_A_XK0_1447
     RDKit          3D

 16 17  0  0  0  0  0  0  0  0999 V2000
  -16.8060   39.4870   91.8940 C   0  0  0  0  0  0  0  0  0  0  0  0
  -19.9130   40.3750   89.8790 C   0  0  0  0  0  2  0  0  0  0  0  0
  -20.5840   39.5960   92.0680 C   0  0  0  0  0  2  0  0  0  0  0  0
  -20.9190   40.0780   90.8010 C   0  0  0  0  0  3  0  0  0  0  0  0
  -22.7040   41.0580   89.3760 C   0  0  0  0  0  1  0  0  0  0  0  0
  -18.2420   39.7020   91.5100 C   0  0  0  0  0  3  0  0  0  0  0  0
  -16.4580   40.4490   93.0220 C   0  0  0  0  0  2  0  0  0  0  0  0
  -16.6520   38.0420   92.3580 C   0  0  0  0  0  1  0  0  0  0  0  0
  -18.5790   40.1820   90.2400 C   0  0  0  0  0  2  0  0  0  0  0  0
  -19.2490   39.4070   92.4340 C   0  0  0  0  0  2  0  0  0  0  0  0
  -15.5800   40.8470   90.3180 C   0  0  0  0  0  3  0  0  0  0  0  0
  -16.7780   41.8750   92.5850 C   0  0  0  0  0  2  0  0  0  0  0  0
  -15.0030   40.8780   89.1020 N   0  0  0  0  0  1  0  0  0  0  0  0
  -15.9300   39.7050   90.7490 N   0  0  0  0  0  2  0  0  0  0  0  0
  -22.2480   40.2490   90.4940 O   0  0  0  0  0  0  0  0  0  0  0  0
  -15.8200   42.2990   91.1650 S   0  0  0  0  0  0  0  0  0  0  0  0
  1  6  1  0
  1  7  1  0
  1  8  1  0
  1 14  1  0
  2  4  1  0
  2  9  1  0
  3  4  1  0
  3 10  1  0
  4 15  1  0
  5 15  1  0
  6  9  1  0
  6 10  1  0
  7 12  1  0
 11 13  1  0
 11 14  1  0
 11 16  1  0
 12 16  1  0
M  END
$$$$
