4bfd_A_8T3_1447
     RDKit          3D

 26 29  0  0  0  0  0  0  0  0999 V2000
  -21.1050   41.8480   89.4540 C   0  0  0  0  0  3  0  0  0  0  0  0
  -19.3710   38.9330   94.9690 C   0  0  0  0  0  3  0  0  0  0  0  0
  -18.6340   39.7190   92.8390 C   0  0  0  0  0  2  0  0  0  0  0  0
  -19.9580   39.9740   92.4860 C   0  0  0  0  0  3  0  0  0  0  0  0
  -21.9570   42.8760   89.0560 C   0  0  0  0  0  2  0  0  0  0  0  0
  -20.7070   39.2020   94.6470 C   0  0  0  0  0  2  0  0  0  0  0  0
  -16.8840   38.8740   94.4600 C   0  0  0  0  0  0  0  0  0  0  0  0
  -19.7720   42.1000   87.5340 C   0  0  0  0  0  2  0  0  0  0  0  0
  -20.6130   43.1030   87.0980 C   0  0  0  0  0  3  0  0  0  0  0  0
  -21.0030   39.7390   93.3960 C   0  0  0  0  0  2  0  0  0  0  0  0
  -16.8430   37.3910   94.8140 C   0  0  0  0  0  1  0  0  0  0  0  0
  -21.7350   43.5090   87.8430 C   0  0  0  0  0  2  0  0  0  0  0  0
  -15.0390   41.1870   94.0720 C   0  0  0  0  0  3  0  0  0  0  0  0
  -15.7280   41.0300   95.4320 C   0  0  0  0  0  3  0  0  0  0  0  0
  -15.2570   40.0710   93.0820 C   0  0  0  0  0  3  0  0  0  0  0  0
  -16.3540   41.9170   94.3490 C   0  0  0  0  0  2  0  0  0  0  0  0
  -18.3220   39.1930   94.0740 C   0  0  0  0  0  3  0  0  0  0  0  0
  -21.2610   41.1730   90.7760 C   0  0  0  0  0  3  0  0  0  0  0  0
  -16.4530   39.7010   95.6720 C   0  0  0  0  0  2  0  0  0  0  0  0
  -20.2360   43.8350   85.5230 Cl  0  0  0  0  0  0  0  0  0  0  0  0
  -19.0790   38.4290   96.1810 F   0  0  0  0  0  0  0  0  0  0  0  0
  -15.9670   39.0470   93.3510 N   0  0  0  0  0  2  0  0  0  0  0  0
  -20.0320   41.5170   88.7030 N   0  0  0  0  0  2  0  0  0  0  0  0
  -20.1530   40.5820   91.2430 N   0  0  0  0  0  2  0  0  0  0  0  0
  -14.6610   40.1340   91.8830 N   0  0  0  0  0  1  0  0  0  0  0  0
  -22.3270   41.2030   91.3530 O   0  0  0  0  0  1  0  0  0  0  0  0
  1  5  1  0
  1 18  1  0
  1 23  1  0
  2  6  1  0
  2 17  1  0
  2 21  1  0
  3  4  1  0
  3 17  1  0
  4 10  1  0
  4 24  1  0
  5 12  1  0
  6 10  1  0
  7 11  1  0
  7 17  1  0
  7 19  1  0
  7 22  1  0
  8  9  1  0
  8 23  1  0
  9 12  1  0
  9 20  1  0
 13 14  1  0
 13 15  1  0
 13 16  1  0
 14 16  1  0
 14 19  1  0
 15 22  1  0
 15 25  1  0
 18 24  1  0
 18 26  1  0
M  END
$$$$
