4d88_A_BXQ_401
     RDKit          3D

 37 39  0  0  0  0  0  0  0  0999 V2000
   30.2470   77.3110   20.5180 C   0  0  0  0  0  3  0  0  0  0  0  0
   31.5150   77.2620   21.1700 C   0  0  0  0  0  3  0  0  0  0  0  0
   32.0060   76.0090   21.6250 C   0  0  0  0  0  3  0  0  0  0  0  0
   31.2590   74.8210   21.4370 C   0  0  0  0  0  2  0  0  0  0  0  0
   30.0010   74.8730   20.7860 C   0  0  0  0  0  3  0  0  0  0  0  0
   29.5080   76.1180   20.3410 C   0  0  0  0  0  2  0  0  0  0  0  0
   28.5910   79.5940   17.8150 C   0  0  0  0  0  0  0  0  0  0  0  0
   29.1650   73.6040   20.5330 C   0  0  0  0  0  2  0  0  0  0  0  0
   29.7450   72.7480   19.3490 C   0  0  0  0  0  3  0  0  0  0  0  0
   28.8260   71.5860   18.8540 C   0  0  0  0  0  3  0  0  0  0  0  0
   29.5570   70.6590   17.8250 C   0  0  0  0  0  3  0  0  0  0  0  0
   30.0630   71.3840   16.5420 C   0  0  0  0  0  2  0  0  0  0  0  0
   30.1480   73.6390   18.1190 C   0  0  0  0  0  2  0  0  0  0  0  0
   29.3550   68.2500   16.8560 C   0  0  0  0  0  2  0  0  0  0  0  0
   30.5030   67.7500   17.7520 C   0  0  0  0  0  3  0  0  0  0  0  0
   30.2190   67.1640   19.0090 C   0  0  0  0  0  2  0  0  0  0  0  0
   31.2380   66.6850   19.8890 C   0  0  0  0  0  3  0  0  0  0  0  0
   32.5820   66.8300   19.4260 C   0  0  0  0  0  2  0  0  0  0  0  0
   32.8900   67.4110   18.1720 C   0  0  0  0  0  2  0  0  0  0  0  0
   29.5250   78.5160   18.4130 C   0  0  0  0  0  3  0  0  0  0  0  0
   31.8490   67.8720   17.3320 C   0  0  0  0  0  2  0  0  0  0  0  0
   30.8540   66.0460   21.2790 C   0  0  0  0  0  0  0  0  0  0  0  0
   32.0500   65.2740   21.9210 C   0  0  0  0  0  1  0  0  0  0  0  0
   30.4080   67.1460   22.2980 C   0  0  0  0  0  1  0  0  0  0  0  0
   29.6560   65.0400   21.1850 C   0  0  0  0  0  1  0  0  0  0  0  0
   29.6010   78.5940   19.9710 C   0  0  0  0  0  2  0  0  0  0  0  0
   29.0640   80.8110   18.1980 F   0  0  0  0  0  0  0  0  0  0  0  0
   27.3220   79.4180   18.2750 F   0  0  0  0  0  0  0  0  0  0  0  0
   28.5830   79.5160   16.4550 F   0  0  0  0  0  0  0  0  0  0  0  0
   33.1890   75.9430   22.2350 F   0  0  0  0  0  0  0  0  0  0  0  0
   28.7500   69.4540   17.4970 N   0  0  0  0  0  2  0  0  0  0  0  0
   32.2850   78.3620   21.3780 N   0  0  0  0  0  1  0  0  0  0  0  0
   32.3190   72.1540   17.7510 O   0  0  0  0  0  1  0  0  0  0  0  0
   31.5050   73.5140   15.8490 O   0  0  0  0  0  1  0  0  0  0  0  0
   28.4280   70.6980   19.9140 O   0  0  0  0  0  1  0  0  0  0  0  0
   30.8450   78.6240   17.8490 O   0  0  0  0  0  1  0  0  0  0  0  0
   31.1990   72.6990   17.0110 S   0  0  0  0  0  4  0  0  0  0  0  0
  1  2  1  0
  1  6  1  0
  1 26  1  0
  2  3  1  0
  2 32  1  0
  3  4  1  0
  3 30  1  0
  4  5  1  0
  5  6  1  0
  5  8  1  0
  7 20  1  0
  7 27  1  0
  7 28  1  0
  7 29  1  0
  8  9  1  0
  9 10  1  0
  9 13  1  0
 10 11  1  0
 10 35  1  0
 11 12  1  0
 11 31  1  0
 12 37  1  0
 13 37  1  0
 14 15  1  0
 14 31  1  0
 15 16  1  0
 15 21  1  0
 16 17  1  0
 17 18  1  0
 17 22  1  0
 18 19  1  0
 19 21  1  0
 20 26  1  0
 20 36  1  0
 22 23  1  0
 22 24  1  0
 22 25  1  0
 33 37  1  0
 34 37  1  0
M  END
$$$$
