4d89_A_BXD_501
     RDKit          3D

 43 47  0  0  0  0  0  0  0  0999 V2000
   31.2690   74.9710   20.7750 C   0  0  0  0  0  3  0  0  0  0  0  0
   30.4460   73.8460   20.5280 C   0  0  0  0  0  2  0  0  0  0  0  0
   29.2610   73.9900   19.7600 C   0  0  0  0  0  3  0  0  0  0  0  0
   28.9140   75.2630   19.2520 C   0  0  0  0  0  2  0  0  0  0  0  0
   28.3460   72.7940   19.4480 C   0  0  0  0  0  2  0  0  0  0  0  0
   28.9600   71.8270   18.3780 C   0  0  0  0  0  3  0  0  0  0  0  0
   27.4650   78.4900   17.9980 C   0  0  0  0  0  0  0  0  0  0  0  0
   28.0610   70.6010   18.0200 C   0  0  0  0  0  3  0  0  0  0  0  0
   28.7920   69.5670   17.1040 C   0  0  0  0  0  3  0  0  0  0  0  0
   29.3610   70.1570   15.7750 C   0  0  0  0  0  2  0  0  0  0  0  0
   29.3700   72.5900   17.0750 C   0  0  0  0  0  2  0  0  0  0  0  0
   28.5550   67.1190   16.2530 C   0  0  0  0  0  2  0  0  0  0  0  0
   29.7600   66.6350   17.0790 C   0  0  0  0  0  3  0  0  0  0  0  0
   29.5340   66.1300   18.3810 C   0  0  0  0  0  2  0  0  0  0  0  0
   30.5910   65.6670   19.2200 C   0  0  0  0  0  3  0  0  0  0  0  0
   31.9080   65.7370   18.6770 C   0  0  0  0  0  2  0  0  0  0  0  0
   32.1590   66.2370   17.3760 C   0  0  0  0  0  2  0  0  0  0  0  0
   31.0840   66.6870   16.5750 C   0  0  0  0  0  2  0  0  0  0  0  0
   30.2920   65.1190   20.6620 C   0  0  0  0  0  0  0  0  0  0  0  0
   28.8370   77.8370   17.7010 C   0  0  0  0  0  3  0  0  0  0  0  0
   29.1740   64.0390   20.5720 C   0  0  0  0  0  1  0  0  0  0  0  0
   31.5130   64.4610   21.3870 C   0  0  0  0  0  1  0  0  0  0  0  0
   29.8140   66.2690   21.6120 C   0  0  0  0  0  1  0  0  0  0  0  0
   29.7390   78.7500   16.8170 C   0  0  0  0  0  3  0  0  0  0  0  0
   31.3740   78.7610   15.0700 C   0  0  0  0  0  3  0  0  0  0  0  0
   32.0740   78.0920   16.8680 C   0  0  0  0  0  2  0  0  0  0  0  0
   31.8370   77.9280   13.8510 C   0  0  0  0  0  1  0  0  0  0  0  0
   33.0780   77.0870   16.2440 C   0  0  0  0  0  1  0  0  0  0  0  0
   29.7380   76.3890   19.4990 C   0  0  0  0  0  3  0  0  0  0  0  0
   30.9170   76.2430   20.2650 C   0  0  0  0  0  3  0  0  0  0  0  0
   27.6690   79.6480   18.6750 F   0  0  0  0  0  0  0  0  0  0  0  0
   26.7450   77.6650   18.8020 F   0  0  0  0  0  0  0  0  0  0  0  0
   26.7580   78.7170   16.8580 F   0  0  0  0  0  0  0  0  0  0  0  0
   32.3840   74.8390   21.4850 F   0  0  0  0  0  0  0  0  0  0  0  0
   27.9650   68.3520   16.8500 N   0  0  0  0  0  2  0  0  0  0  0  0
   31.7010   77.3250   20.5020 N   0  0  0  0  0  1  0  0  0  0  0  0
   30.7420   72.1990   14.8430 O   0  0  0  0  0  1  0  0  0  0  0  0
   31.5760   71.0990   16.9150 O   0  0  0  0  0  1  0  0  0  0  0  0
   27.6960   69.8560   19.1940 O   0  0  0  0  0  1  0  0  0  0  0  0
   29.4310   77.6620   19.0060 O   0  0  0  0  0  0  0  0  0  0  0  0
   30.4010   77.9830   15.7950 O   0  0  0  0  0  3  0  0  0  0  0  0
   30.7930   77.9750   16.2020 O   0  0  0  0  0  4  0  0  0  0  0  0
   30.4570   71.5420   16.1090 S   0  0  0  0  0  4  0  0  0  0  0  0
  1  2  1  0
  1 30  1  0
  1 34  1  0
  2  3  1  0
  3  4  1  0
  3  5  1  0
  4 29  1  0
  5  6  1  0
  6  8  1  0
  6 11  1  0
  7 20  1  0
  7 31  1  0
  7 32  1  0
  7 33  1  0
  8  9  1  0
  8 39  1  0
  9 10  1  0
  9 35  1  0
 10 43  1  0
 11 43  1  0
 12 13  1  0
 12 35  1  0
 13 14  1  0
 13 18  1  0
 14 15  1  0
 15 16  1  0
 15 19  1  0
 16 17  1  0
 17 18  1  0
 19 21  1  0
 19 22  1  0
 19 23  1  0
 20 24  1  0
 20 40  1  0
 24 41  1  0
 24 42  1  0
 25 27  1  0
 25 41  1  0
 25 42  1  0
 26 28  1  0
 26 42  1  0
 29 30  1  0
 29 40  1  0
 30 36  1  0
 37 43  1  0
 38 43  1  0
 41 42  1  0
M  END
$$$$
