4d8c_B_BXD_501
     RDKit          3D

 40 42  0  0  0  0  0  0  0  0999 V2000
   13.3670    4.5880  -17.3840 C   0  0  0  0  0  3  0  0  0  0  0  0
   13.8370    5.8700  -17.7540 C   0  0  0  0  0  2  0  0  0  0  0  0
   15.1430    6.2750  -17.3730 C   0  0  0  0  0  3  0  0  0  0  0  0
   15.9610    5.3930  -16.6330 C   0  0  0  0  0  2  0  0  0  0  0  0
   15.7040    7.6510  -17.7720 C   0  0  0  0  0  2  0  0  0  0  0  0
   16.1490    7.6990  -19.2760 C   0  0  0  0  0  3  0  0  0  0  0  0
   18.4600    3.4560  -14.5310 C   0  0  0  0  0  0  0  0  0  0  0  0
   16.8310    9.0350  -19.7180 C   0  0  0  0  0  3  0  0  0  0  0  0
   17.0840    9.1050  -21.2560 C   0  0  0  0  0  3  0  0  0  0  0  0
   17.9190    7.9300  -21.8600 C   0  0  0  0  0  2  0  0  0  0  0  0
   17.0600    6.4890  -19.6770 C   0  0  0  0  0  2  0  0  0  0  0  0
   17.6370   10.8200  -23.1250 C   0  0  0  0  0  2  0  0  0  0  0  0
   16.2160   10.7380  -23.7190 C   0  0  0  0  0  3  0  0  0  0  0  0
   15.2250   11.6350  -23.2490 C   0  0  0  0  0  2  0  0  0  0  0  0
   13.8830   11.6310  -23.7400 C   0  0  0  0  0  3  0  0  0  0  0  0
   13.5900   10.6630  -24.7460 C   0  0  0  0  0  2  0  0  0  0  0  0
   14.5630    9.7590  -25.2300 C   0  0  0  0  0  2  0  0  0  0  0  0
   15.8830    9.7940  -24.7180 C   0  0  0  0  0  2  0  0  0  0  0  0
   12.8210   12.6430  -23.1840 C   0  0  0  0  0  0  0  0  0  0  0  0
   17.7150    3.0970  -15.8370 C   0  0  0  0  0  3  0  0  0  0  0  0
   13.4090   14.0900  -23.2500 C   0  0  0  0  0  1  0  0  0  0  0  0
   11.4590   12.6820  -23.9530 C   0  0  0  0  0  1  0  0  0  0  0  0
   12.4520   12.3010  -21.6970 C   0  0  0  0  0  1  0  0  0  0  0  0
   18.0390    1.6550  -16.3090 C   0  0  0  0  0  2  0  0  0  0  0  0
   17.6940    0.2190  -18.2830 C   0  0  0  0  0  2  0  0  0  0  0  0
   16.6940   -0.8880  -17.9100 C   0  0  0  0  0  1  0  0  0  0  0  0
   15.4970    4.1090  -16.2630 C   0  0  0  0  0  3  0  0  0  0  0  0
   14.1950    3.6970  -16.6480 C   0  0  0  0  0  3  0  0  0  0  0  0
   18.0050    2.6760  -13.5180 F   0  0  0  0  0  0  0  0  0  0  0  0
   18.1930    4.7410  -14.1880 F   0  0  0  0  0  0  0  0  0  0  0  0
   19.8090    3.3210  -14.6650 F   0  0  0  0  0  0  0  0  0  0  0  0
   12.1450    4.2220  -17.7500 F   0  0  0  0  0  0  0  0  0  0  0  0
   17.6170   10.4300  -21.6900 N   0  0  0  0  0  2  0  0  0  0  0  0
   13.7500    2.4660  -16.2950 N   0  0  0  0  0  1  0  0  0  0  0  0
   18.1040    5.3060  -21.8140 O   0  0  0  0  0  1  0  0  0  0  0  0
   15.8190    6.2650  -22.0060 O   0  0  0  0  0  1  0  0  0  0  0  0
   16.0010   10.1730  -19.4160 O   0  0  0  0  0  1  0  0  0  0  0  0
   16.3060    3.2250  -15.5370 O   0  0  0  0  0  0  0  0  0  0  0  0
   17.3080    1.4200  -17.5450 O   0  0  0  0  0  0  0  0  0  0  0  0
   17.1670    6.3530  -21.4610 S   0  0  0  0  0  4  0  0  0  0  0  0
  1  2  1  0
  1 28  1  0
  1 32  1  0
  2  3  1  0
  3  4  1  0
  3  5  1  0
  4 27  1  0
  5  6  1  0
  6  8  1  0
  6 11  1  0
  7 20  1  0
  7 29  1  0
  7 30  1  0
  7 31  1  0
  8  9  1  0
  8 37  1  0
  9 10  1  0
  9 33  1  0
 10 40  1  0
 11 40  1  0
 12 13  1  0
 12 33  1  0
 13 14  1  0
 13 18  1  0
 14 15  1  0
 15 16  1  0
 15 19  1  0
 16 17  1  0
 17 18  1  0
 19 21  1  0
 19 22  1  0
 19 23  1  0
 20 24  1  0
 20 38  1  0
 24 39  1  0
 25 26  1  0
 25 39  1  0
 27 28  1  0
 27 38  1  0
 28 34  1  0
 35 40  1  0
 36 40  1  0
M  END
$$$$
