4di2_C_0K9_501
     RDKit          3D

 42 46  0  0  0  0  0  0  0  0999 V2000
   66.2570  -43.7070   20.3470 C   0  0  0  0  0  3  0  0  0  0  0  0
   66.4090  -47.1730   17.2340 C   0  0  0  0  0  3  0  0  0  0  0  0
   67.7660  -47.5160   17.2150 C   0  0  0  0  0  2  0  0  0  0  0  0
   68.7150  -46.6120   17.7040 C   0  0  0  0  0  2  0  0  0  0  0  0
   68.3130  -45.3750   18.2250 C   0  0  0  0  0  2  0  0  0  0  0  0
   64.7150  -40.6730   24.0680 C   0  0  0  0  0  3  0  0  0  0  0  0
   66.1640  -40.7790   24.6090 C   0  0  0  0  0  3  0  0  0  0  0  0
   66.4530  -41.4560   25.8100 C   0  0  0  0  0  3  0  0  0  0  0  0
   64.1460  -41.5980   26.3640 C   0  0  0  0  0  0  0  0  0  0  0  0
   63.7380  -41.5610   24.8820 C   0  0  0  0  0  2  0  0  0  0  0  0
   65.5530  -42.4030   20.8010 C   0  0  0  0  0  3  0  0  0  0  0  0
   67.2260  -40.1900   23.9130 C   0  0  0  0  0  2  0  0  0  0  0  0
   68.5210  -40.2990   24.4240 C   0  0  0  0  0  3  0  0  0  0  0  0
   68.7310  -40.9920   25.6150 C   0  0  0  0  0  2  0  0  0  0  0  0
   63.1470  -42.3800   27.2210 C   0  0  0  0  0  2  0  0  0  0  0  0
   62.5750  -41.0380   27.7320 C   0  0  0  0  0  2  0  0  0  0  0  0
   63.7870  -40.3080   27.1340 C   0  0  0  0  0  2  0  0  0  0  0  0
   69.7250  -39.6610   23.6970 C   0  0  0  0  0  2  0  0  0  0  0  0
   70.0920  -38.2620   24.2560 C   0  0  0  0  0  0  0  0  0  0  0  0
   71.4030  -37.8150   23.6100 C   0  0  0  0  0  1  0  0  0  0  0  0
   65.1120  -42.3880   22.2750 C   0  0  0  0  0  2  0  0  0  0  0  0
   70.2990  -38.2690   25.7850 C   0  0  0  0  0  1  0  0  0  0  0  0
   69.0110  -37.2400   23.9020 C   0  0  0  0  0  1  0  0  0  0  0  0
   65.4220  -48.0560   16.7910 C   0  0  0  0  0  3  0  0  0  0  0  0
   65.8090  -45.6770   21.7940 C   0  0  0  0  0  3  0  0  0  0  0  0
   64.9680  -46.9300   22.1070 C   0  0  0  0  0  3  0  0  0  0  0  0
   65.2140  -48.4240   20.3460 C   0  0  0  0  0  1  0  0  0  0  0  0
   64.3350  -49.9830   16.2890 C   0  0  0  0  0  2  0  0  0  0  0  0
   63.3090  -49.1590   16.0120 C   0  0  0  0  0  2  0  0  0  0  0  0
   63.8770  -46.6290   23.1360 C   0  0  0  0  0  1  0  0  0  0  0  0
   66.4790  -43.6910   18.8230 C   0  0  0  0  0  2  0  0  0  0  0  0
   66.9600  -45.0410   18.2620 C   0  0  0  0  0  3  0  0  0  0  0  0
   66.0230  -45.9440   17.7670 C   0  0  0  0  0  2  0  0  0  0  0  0
   67.7190  -41.5390   26.2650 N   0  0  0  0  0  2  0  0  0  0  0  0
   65.4700  -49.3920   16.7210 N   0  0  0  0  0  2  0  0  0  0  0  0
   64.6320  -41.0270   22.6250 N   0  0  0  0  0  2  0  0  0  0  0  0
   65.5030  -44.9260   20.7310 N   0  0  0  0  0  2  0  0  0  0  0  0
   65.4870  -42.0640   26.5610 O   0  0  0  0  0  0  0  0  0  0  0  0
   66.7320  -45.4150   22.5620 O   0  0  0  0  0  1  0  0  0  0  0  0
   64.3490  -47.4370   20.9250 O   0  0  0  0  0  0  0  0  0  0  0  0
   66.4400  -41.3030   20.5910 O   0  0  0  0  0  1  0  0  0  0  0  0
   63.8540  -47.5820   16.3110 S   0  0  0  0  0  0  0  0  0  0  0  0
  1 11  1  0
  1 31  1  0
  1 37  1  0
  2  3  1  0
  2 24  1  0
  2 33  1  0
  3  4  1  0
  4  5  1  0
  5 32  1  0
  6  7  1  0
  6 10  1  0
  6 36  1  0
  7  8  1  0
  7 12  1  0
  8 34  1  0
  8 38  1  0
  9 10  1  0
  9 15  1  0
  9 17  1  0
  9 38  1  0
 11 21  1  0
 11 41  1  0
 12 13  1  0
 13 14  1  0
 13 18  1  0
 14 34  1  0
 15 16  1  0
 16 17  1  0
 18 19  1  0
 19 20  1  0
 19 22  1  0
 19 23  1  0
 21 36  1  0
 24 35  1  0
 24 42  1  0
 25 26  1  0
 25 37  1  0
 25 39  1  0
 26 30  1  0
 26 40  1  0
 27 40  1  0
 28 29  1  0
 28 35  1  0
 29 42  1  0
 31 32  1  0
 32 33  1  0
M  END
$$$$
