4di2_A_0K9_501
     RDKit          3D

 42 46  0  0  0  0  0  0  0  0999 V2000
   31.5700    6.4040   14.2400 C   0  0  0  0  0  3  0  0  0  0  0  0
   31.0880    9.8050   17.3710 C   0  0  0  0  0  3  0  0  0  0  0  0
   31.0440   10.9650   16.5860 C   0  0  0  0  0  2  0  0  0  0  0  0
   31.5230   10.9300   15.2700 C   0  0  0  0  0  2  0  0  0  0  0  0
   32.0380    9.7420   14.7370 C   0  0  0  0  0  2  0  0  0  0  0  0
   30.9990    1.9730   11.8970 C   0  0  0  0  0  3  0  0  0  0  0  0
   30.8030    2.8160   10.6060 C   0  0  0  0  0  3  0  0  0  0  0  0
   29.5780    2.8130    9.9040 C   0  0  0  0  0  3  0  0  0  0  0  0
   28.7770    1.0150   11.2310 C   0  0  0  0  0  0  0  0  0  0  0  0
   29.6360    1.4710   12.4240 C   0  0  0  0  0  2  0  0  0  0  0  0
   32.1010    4.9720   13.9810 C   0  0  0  0  0  3  0  0  0  0  0  0
   31.8550    3.5890   10.1020 C   0  0  0  0  0  2  0  0  0  0  0  0
   31.6490    4.3450    8.9440 C   0  0  0  0  0  3  0  0  0  0  0  0
   30.4070    4.3020    8.3130 C   0  0  0  0  0  2  0  0  0  0  0  0
   27.5020    0.2960   11.6700 C   0  0  0  0  0  2  0  0  0  0  0  0
   28.0810   -1.0320   11.1450 C   0  0  0  0  0  2  0  0  0  0  0  0
   29.2960   -0.2830   10.5860 C   0  0  0  0  0  2  0  0  0  0  0  0
   32.7720    5.2070    8.3370 C   0  0  0  0  0  2  0  0  0  0  0  0
   33.5630    4.4350    7.2380 C   0  0  0  0  0  0  0  0  0  0  0  0
   34.4350    5.4190    6.4540 C   0  0  0  0  0  1  0  0  0  0  0  0
   31.0660    4.0210   13.3300 C   0  0  0  0  0  2  0  0  0  0  0  0
   32.6220    3.7560    6.2300 C   0  0  0  0  0  1  0  0  0  0  0  0
   34.4850    3.3860    7.8570 C   0  0  0  0  0  1  0  0  0  0  0  0
   30.5850    9.7720   18.6730 C   0  0  0  0  0  3  0  0  0  0  0  0
   29.1130    6.5630   14.3880 C   0  0  0  0  0  3  0  0  0  0  0  0
   27.8340    6.5140   15.2230 C   0  0  0  0  0  3  0  0  0  0  0  0
   27.8590    8.2570   16.7610 C   0  0  0  0  0  1  0  0  0  0  0  0
   29.2560   10.1980   20.4580 C   0  0  0  0  0  2  0  0  0  0  0  0
   30.0150    9.2690   21.0590 C   0  0  0  0  0  2  0  0  0  0  0  0
   27.2390    5.1100   15.1770 C   0  0  0  0  0  1  0  0  0  0  0  0
   32.6220    7.2620   14.9790 C   0  0  0  0  0  2  0  0  0  0  0  0
   32.0680    8.5880   15.5200 C   0  0  0  0  0  3  0  0  0  0  0  0
   31.5920    8.6330   16.8270 C   0  0  0  0  0  2  0  0  0  0  0  0
   29.4230    3.5570    8.7930 N   0  0  0  0  0  2  0  0  0  0  0  0
   29.5530   10.4620   19.1700 N   0  0  0  0  0  2  0  0  0  0  0  0
   31.7140    2.7350   12.9620 N   0  0  0  0  0  2  0  0  0  0  0  0
   30.2940    6.3690   14.9830 N   0  0  0  0  0  2  0  0  0  0  0  0
   28.4980    2.0840   10.3030 O   0  0  0  0  0  0  0  0  0  0  0  0
   28.9900    6.7860   13.1830 O   0  0  0  0  0  1  0  0  0  0  0  0
   28.1260    6.8720   16.5750 O   0  0  0  0  0  0  0  0  0  0  0  0
   33.2450    5.0620   13.1410 O   0  0  0  0  0  1  0  0  0  0  0  0
   31.1360    8.7330   19.9090 S   0  0  0  0  0  0  0  0  0  0  0  0
  1 11  1  0
  1 31  1  0
  1 37  1  0
  2  3  1  0
  2 24  1  0
  2 33  1  0
  3  4  1  0
  4  5  1  0
  5 32  1  0
  6  7  1  0
  6 10  1  0
  6 36  1  0
  7  8  1  0
  7 12  1  0
  8 34  1  0
  8 38  1  0
  9 10  1  0
  9 15  1  0
  9 17  1  0
  9 38  1  0
 11 21  1  0
 11 41  1  0
 12 13  1  0
 13 14  1  0
 13 18  1  0
 14 34  1  0
 15 16  1  0
 16 17  1  0
 18 19  1  0
 19 20  1  0
 19 22  1  0
 19 23  1  0
 21 36  1  0
 24 35  1  0
 24 42  1  0
 25 26  1  0
 25 37  1  0
 25 39  1  0
 26 30  1  0
 26 40  1  0
 27 40  1  0
 28 29  1  0
 28 35  1  0
 29 42  1  0
 31 32  1  0
 32 33  1  0
M  END
$$$$
