4dju_A_0KK_501
     RDKit          3D

 20 22  0  0  0  0  0  0  0  0999 V2000
   21.9860   12.0030   22.8380 C   0  0  0  0  0  3  0  0  0  0  0  0
   19.2720   11.4690   22.0180 C   0  0  0  0  0  2  0  0  0  0  0  0
   22.6270   11.0910   20.5900 C   0  0  0  0  0  3  0  0  0  0  0  0
   22.4470   12.2110   19.7790 C   0  0  0  0  0  2  0  0  0  0  0  0
   23.2720   12.4360   18.6790 C   0  0  0  0  0  2  0  0  0  0  0  0
   24.2900   11.5520   18.3800 C   0  0  0  0  0  2  0  0  0  0  0  0
   24.4810   10.4370   19.1730 C   0  0  0  0  0  2  0  0  0  0  0  0
   23.6520   10.2040   20.2690 C   0  0  0  0  0  2  0  0  0  0  0  0
   21.7410   10.8480   21.8250 C   0  0  0  0  0  0  0  0  0  0  0  0
   22.4580   10.0150   23.8380 C   0  0  0  0  0  3  0  0  0  0  0  0
   22.7430   12.2060   25.2160 C   0  0  0  0  0  1  0  0  0  0  0  0
   20.2620   10.6920   21.4230 C   0  0  0  0  0  3  0  0  0  0  0  0
   19.8770    9.7650   20.4590 C   0  0  0  0  0  2  0  0  0  0  0  0
   18.5430    9.6320   20.0900 C   0  0  0  0  0  2  0  0  0  0  0  0
   17.5760   10.4230   20.6790 C   0  0  0  0  0  2  0  0  0  0  0  0
   17.9390   11.3360   21.6450 C   0  0  0  0  0  2  0  0  0  0  0  0
   22.0950    9.6270   22.5950 N   0  0  0  0  0  2  0  0  0  0  0  0
   22.4180   11.4310   24.0130 N   0  0  0  0  0  0  0  0  0  0  0  0
   22.8270    9.1960   24.8210 N   0  0  0  0  0  1  0  0  0  0  0  0
   21.8230   13.1940   22.6510 O   0  0  0  0  0  1  0  0  0  0  0  0
  1  9  1  0
  1 18  1  0
  1 20  1  0
  2 12  1  0
  2 16  1  0
  3  4  1  0
  3  8  1  0
  3  9  1  0
  4  5  1  0
  5  6  1  0
  6  7  1  0
  7  8  1  0
  9 12  1  0
  9 17  1  0
 10 17  1  0
 10 18  1  0
 10 19  1  0
 11 18  1  0
 12 13  1  0
 13 14  1  0
 14 15  1  0
 15 16  1  0
M  END
$$$$
