4djv_B_0KM_501
     RDKit          3D

 28 31  0  0  0  0  0  0  0  0999 V2000
   20.4540   33.5720   56.9050 C   0  0  0  0  0  3  0  0  0  0  0  0
   22.6650   33.4150   54.9270 C   0  0  0  0  0  2  0  0  0  0  0  0
   19.6160   34.6850   54.7950 C   0  0  0  0  0  3  0  0  0  0  0  0
   19.9280   34.4840   53.4520 C   0  0  0  0  0  2  0  0  0  0  0  0
   18.9180   34.3600   52.5050 C   0  0  0  0  0  2  0  0  0  0  0  0
   17.5890   34.4630   52.8960 C   0  0  0  0  0  2  0  0  0  0  0  0
   17.2520   34.6830   54.2380 C   0  0  0  0  0  3  0  0  0  0  0  0
   18.2780   34.7990   55.1790 C   0  0  0  0  0  2  0  0  0  0  0  0
   13.2590   34.7200   55.8040 C   0  0  0  0  0  2  0  0  0  0  0  0
   15.4720   35.6700   55.6840 C   0  0  0  0  0  2  0  0  0  0  0  0
   15.8390   34.7640   54.6830 C   0  0  0  0  0  3  0  0  0  0  0  0
   20.6930   34.7260   55.8920 C   0  0  0  0  0  0  0  0  0  0  0  0
   14.8740   33.8670   54.2190 C   0  0  0  0  0  2  0  0  0  0  0  0
   13.6000   33.8390   54.7860 C   0  0  0  0  0  2  0  0  0  0  0  0
   14.1980   35.6490   56.2390 C   0  0  0  0  0  3  0  0  0  0  0  0
   12.8200   36.6580   57.9450 C   0  0  0  0  0  1  0  0  0  0  0  0
   20.3750   35.5500   58.0430 C   0  0  0  0  0  3  0  0  0  0  0  0
   20.1150   33.3280   59.3690 C   0  0  0  0  0  1  0  0  0  0  0  0
   22.1390   34.6270   55.3740 C   0  0  0  0  0  3  0  0  0  0  0  0
   22.9570   35.7530   55.3440 C   0  0  0  0  0  2  0  0  0  0  0  0
   24.2690   35.6700   54.8870 C   0  0  0  0  0  2  0  0  0  0  0  0
   24.7770   34.4690   54.4480 C   0  0  0  0  0  2  0  0  0  0  0  0
   23.9750   33.3350   54.4700 C   0  0  0  0  0  2  0  0  0  0  0  0
   20.4790   35.9470   56.7600 N   0  0  0  0  0  2  0  0  0  0  0  0
   20.3240   34.1270   58.1600 N   0  0  0  0  0  0  0  0  0  0  0  0
   20.2300   36.3820   59.0930 N   0  0  0  0  0  1  0  0  0  0  0  0
   20.3900   32.3870   56.6450 O   0  0  0  0  0  1  0  0  0  0  0  0
   14.0590   36.6000   57.2150 O   0  0  0  0  0  0  0  0  0  0  0  0
  1 12  1  0
  1 25  1  0
  1 27  1  0
  2 19  1  0
  2 23  1  0
  3  4  1  0
  3  8  1  0
  3 12  1  0
  4  5  1  0
  5  6  1  0
  6  7  1  0
  7  8  1  0
  7 11  1  0
  9 14  1  0
  9 15  1  0
 10 11  1  0
 10 15  1  0
 11 13  1  0
 12 19  1  0
 12 24  1  0
 13 14  1  0
 15 28  1  0
 16 28  1  0
 17 24  1  0
 17 25  1  0
 17 26  1  0
 18 25  1  0
 19 20  1  0
 20 21  1  0
 21 22  1  0
 22 23  1  0
M  END
$$$$
