4djw_B_0KP_501
     RDKit          3D

 26 29  0  0  0  0  0  0  0  0999 V2000
   20.4680   33.5260   56.9840 C   0  0  0  0  0  3  0  0  0  0  0  0
   22.6470   33.4380   54.9540 C   0  0  0  0  0  2  0  0  0  0  0  0
   19.6000   34.7560   54.9200 C   0  0  0  0  0  3  0  0  0  0  0  0
   19.9220   34.7920   53.5690 C   0  0  0  0  0  2  0  0  0  0  0  0
   18.9270   34.7600   52.6090 C   0  0  0  0  0  2  0  0  0  0  0  0
   17.5950   34.7250   52.9900 C   0  0  0  0  0  2  0  0  0  0  0  0
   17.2390   34.7270   54.3390 C   0  0  0  0  0  3  0  0  0  0  0  0
   18.2560   34.7290   55.3020 C   0  0  0  0  0  2  0  0  0  0  0  0
   13.2410   34.6290   55.7170 C   0  0  0  0  0  2  0  0  0  0  0  0
   15.3300   35.5650   55.7660 C   0  0  0  0  0  2  0  0  0  0  0  0
   15.8050   34.7300   54.7600 C   0  0  0  0  0  3  0  0  0  0  0  0
   20.6980   34.7180   55.9980 C   0  0  0  0  0  0  0  0  0  0  0  0
   14.8920   33.8330   54.2120 C   0  0  0  0  0  2  0  0  0  0  0  0
   13.5960   33.7790   54.6960 C   0  0  0  0  0  2  0  0  0  0  0  0
   20.4250   35.4880   58.1590 C   0  0  0  0  0  3  0  0  0  0  0  0
   20.1970   33.2250   59.4520 C   0  0  0  0  0  1  0  0  0  0  0  0
   22.1350   34.6360   55.4580 C   0  0  0  0  0  3  0  0  0  0  0  0
   22.9620   35.7500   55.4670 C   0  0  0  0  0  2  0  0  0  0  0  0
   24.2770   35.6650   55.0230 C   0  0  0  0  0  2  0  0  0  0  0  0
   24.7760   34.4720   54.5540 C   0  0  0  0  0  2  0  0  0  0  0  0
   23.9600   33.3600   54.5120 C   0  0  0  0  0  2  0  0  0  0  0  0
   20.5160   35.9250   56.9050 N   0  0  0  0  0  2  0  0  0  0  0  0
   20.3920   34.0490   58.2520 N   0  0  0  0  0  0  0  0  0  0  0  0
   20.2770   36.2890   59.2230 N   0  0  0  0  0  1  0  0  0  0  0  0
   14.0770   35.5260   56.2490 N   0  0  0  0  0  2  0  0  0  0  0  0
   20.3390   32.3540   56.6980 O   0  0  0  0  0  1  0  0  0  0  0  0
  1 12  1  0
  1 23  1  0
  1 26  1  0
  2 17  1  0
  2 21  1  0
  3  4  1  0
  3  8  1  0
  3 12  1  0
  4  5  1  0
  5  6  1  0
  6  7  1  0
  7  8  1  0
  7 11  1  0
  9 14  1  0
  9 25  1  0
 10 11  1  0
 10 25  1  0
 11 13  1  0
 12 17  1  0
 12 22  1  0
 13 14  1  0
 15 22  1  0
 15 23  1  0
 15 24  1  0
 16 23  1  0
 17 18  1  0
 18 19  1  0
 19 20  1  0
 20 21  1  0
M  END
$$$$
