4djx_B_0KQ_501
     RDKit          3D

 24 27  0  0  0  0  0  0  0  0999 V2000
   20.8370   33.4920   57.0210 C   0  0  0  0  0  3  0  0  0  0  0  0
   17.5620   34.4760   54.3640 C   0  0  0  0  0  3  0  0  0  0  0  0
   18.5750   34.6400   55.3120 C   0  0  0  0  0  2  0  0  0  0  0  0
   16.1270   34.4420   54.7870 C   0  0  0  0  0  3  0  0  0  0  0  0
   15.2180   33.5320   54.2550 C   0  0  0  0  0  2  0  0  0  0  0  0
   13.5420   34.1610   55.6890 C   0  0  0  0  0  2  0  0  0  0  0  0
   15.6670   35.2720   55.8120 C   0  0  0  0  0  2  0  0  0  0  0  0
   23.3050   35.7210   55.2300 C   0  0  0  0  0  2  0  0  0  0  0  0
   23.6810   34.8140   56.3580 C   0  0  0  0  0  2  0  0  0  0  0  0
   14.3750   35.1090   56.2570 C   0  0  0  0  0  3  0  0  0  0  0  0
   21.0240   34.6580   56.0130 C   0  0  0  0  0  0  0  0  0  0  0  0
   20.6350   35.4790   58.1500 C   0  0  0  0  0  3  0  0  0  0  0  0
   20.3880   33.2880   59.4770 C   0  0  0  0  0  1  0  0  0  0  0  0
   19.9210   34.6070   54.9340 C   0  0  0  0  0  3  0  0  0  0  0  0
   22.4910   34.4900   55.5030 C   0  0  0  0  0  3  0  0  0  0  0  0
   20.2460   34.4600   53.5870 C   0  0  0  0  0  2  0  0  0  0  0  0
   19.2500   34.3100   52.6330 C   0  0  0  0  0  2  0  0  0  0  0  0
   17.9190   34.3120   53.0170 C   0  0  0  0  0  2  0  0  0  0  0  0
   13.8100   36.0690   57.5950 Cl  0  0  0  0  0  0  0  0  0  0  0  0
   20.7800   35.8840   56.8720 N   0  0  0  0  0  2  0  0  0  0  0  0
   20.6140   34.0650   58.2590 N   0  0  0  0  0  0  0  0  0  0  0  0
   20.4580   36.2670   59.1980 N   0  0  0  0  0  1  0  0  0  0  0  0
   13.9570   33.3830   54.6840 N   0  0  0  0  0  2  0  0  0  0  0  0
   20.8230   32.2990   56.7870 O   0  0  0  0  0  1  0  0  0  0  0  0
  1 11  1  0
  1 21  1  0
  1 24  1  0
  2  3  1  0
  2  4  1  0
  2 18  1  0
  3 14  1  0
  4  5  1  0
  4  7  1  0
  5 23  1  0
  6 10  1  0
  6 23  1  0
  7 10  1  0
  8  9  1  0
  8 15  1  0
  9 15  1  0
 10 19  1  0
 11 14  1  0
 11 15  1  0
 11 20  1  0
 12 20  1  0
 12 21  1  0
 12 22  1  0
 13 21  1  0
 14 16  1  0
 16 17  1  0
 17 18  1  0
M  END
$$$$
