4djy_B_0KR_501
     RDKit          3D

 26 29  0  0  0  0  0  0  0  0999 V2000
   21.1090   34.6360   56.0430 C   0  0  0  0  0  0  0  0  0  0  0  0
   20.4720   34.4270   53.5900 C   0  0  0  0  0  2  0  0  0  0  0  0
   20.3870   33.1730   59.4580 C   0  0  0  0  0  1  0  0  0  0  0  0
   23.7820   34.7900   56.4540 C   0  0  0  0  0  2  0  0  0  0  0  0
   23.4170   35.7490   55.3710 C   0  0  0  0  0  2  0  0  0  0  0  0
   16.3040   34.2240   54.5760 C   0  0  0  0  0  3  0  0  0  0  0  0
   15.7410   35.0500   55.5580 C   0  0  0  0  0  2  0  0  0  0  0  0
   14.3980   34.8950   55.9020 C   0  0  0  0  0  3  0  0  0  0  0  0
   13.6640   33.9080   55.2350 C   0  0  0  0  0  2  0  0  0  0  0  0
   15.4740   33.2790   53.9820 C   0  0  0  0  0  2  0  0  0  0  0  0
   20.6180   35.4120   58.1580 C   0  0  0  0  0  3  0  0  0  0  0  0
   13.7950   35.7060   56.9280 C   0  0  0  0  0  2  0  0  0  0  0  0
   13.2150   36.3400   57.7530 C   0  0  0  0  0  2  0  0  0  0  0  0
   12.4680   37.1220   58.7510 C   0  0  0  0  0  1  0  0  0  0  0  0
   20.9410   33.4560   57.0220 C   0  0  0  0  0  3  0  0  0  0  0  0
   22.5880   34.5140   55.5700 C   0  0  0  0  0  3  0  0  0  0  0  0
   20.0700   34.5420   54.9180 C   0  0  0  0  0  3  0  0  0  0  0  0
   18.7070   34.5130   55.2320 C   0  0  0  0  0  2  0  0  0  0  0  0
   17.7490   34.3330   54.2250 C   0  0  0  0  0  3  0  0  0  0  0  0
   18.1850   34.1970   52.8990 C   0  0  0  0  0  2  0  0  0  0  0  0
   19.5330   34.2490   52.5870 C   0  0  0  0  0  2  0  0  0  0  0  0
   20.7900   35.8460   56.9090 N   0  0  0  0  0  2  0  0  0  0  0  0
   20.6360   33.9860   58.2620 N   0  0  0  0  0  0  0  0  0  0  0  0
   20.3690   36.2040   59.2050 N   0  0  0  0  0  1  0  0  0  0  0  0
   14.1870   33.1070   54.3010 N   0  0  0  0  0  2  0  0  0  0  0  0
   21.0420   32.2750   56.7450 O   0  0  0  0  0  1  0  0  0  0  0  0
  1 15  1  0
  1 16  1  0
  1 17  1  0
  1 22  1  0
  2 17  1  0
  2 21  1  0
  3 23  1  0
  4  5  1  0
  4 16  1  0
  5 16  1  0
  6  7  1  0
  6 10  1  0
  6 19  1  0
  7  8  1  0
  8  9  1  0
  8 12  1  0
  9 25  1  0
 10 25  1  0
 11 22  1  0
 11 23  1  0
 11 24  1  0
 12 13  1  0
 13 14  1  0
 15 23  1  0
 15 26  1  0
 17 18  1  0
 18 19  1  0
 19 20  1  0
 20 21  1  0
M  END
$$$$
