4dus_A_0MP_410
     RDKit          3D

 35 38  0  0  0  0  0  0  0  0999 V2000
   62.5710   45.1050    9.3310 C   0  0  0  0  0  0  0  0  0  0  0  0
   63.3910   47.2520    8.3060 C   0  0  0  0  0  3  0  0  0  0  0  0
   63.3010   45.7280    8.1240 C   0  0  0  0  0  2  0  0  0  0  0  0
   64.2250   50.7730   11.8800 C   0  0  0  0  0  2  0  0  0  0  0  0
   62.9740   51.5320   12.3000 C   0  0  0  0  0  0  0  0  0  0  0  0
   63.4210   52.8470   12.9560 C   0  0  0  0  0  1  0  0  0  0  0  0
   62.2020   50.6880   13.3150 C   0  0  0  0  0  1  0  0  0  0  0  0
   62.0810   51.8760   11.0900 C   0  0  0  0  0  1  0  0  0  0  0  0
   70.5520   49.2200    7.3590 C   0  0  0  0  0  3  0  0  0  0  0  0
   61.0590   45.4090    9.3810 C   0  0  0  0  0  2  0  0  0  0  0  0
   71.3970   49.0440    6.2770 C   0  0  0  0  0  2  0  0  0  0  0  0
   72.7410   48.7720    6.5020 C   0  0  0  0  0  2  0  0  0  0  0  0
   73.2280   48.6870    7.8030 C   0  0  0  0  0  3  0  0  0  0  0  0
   72.3830   48.8490    8.8800 C   0  0  0  0  0  2  0  0  0  0  0  0
   71.0400   49.1130    8.6480 C   0  0  0  0  0  2  0  0  0  0  0  0
   68.2040   48.3230    7.6240 C   0  0  0  0  0  3  0  0  0  0  0  0
   66.7610   48.4800    7.1570 C   0  0  0  0  0  3  0  0  0  0  0  0
   65.8280   47.4400    7.7990 C   0  0  0  0  0  2  0  0  0  0  0  0
   60.7700   43.9410    9.0450 C   0  0  0  0  0  2  0  0  0  0  0  0
   69.0620   49.5030    7.1410 C   0  0  0  0  0  2  0  0  0  0  0  0
   68.8890   46.0150    8.0050 C   0  0  0  0  0  3  0  0  0  0  0  0
   69.4430   44.7150    7.4030 C   0  0  0  0  0  1  0  0  0  0  0  0
   62.2680   43.6110    9.1040 C   0  0  0  0  0  2  0  0  0  0  0  0
   63.4680   46.7020   10.8150 C   0  0  0  0  0  3  0  0  0  0  0  0
   63.5700   47.6550    9.7860 C   0  0  0  0  0  3  0  0  0  0  0  0
   63.8060   48.9850   10.1160 C   0  0  0  0  0  2  0  0  0  0  0  0
   63.9540   49.3280   11.4670 C   0  0  0  0  0  3  0  0  0  0  0  0
   63.8590   48.3380   12.4470 C   0  0  0  0  0  2  0  0  0  0  0  0
   74.5290   48.4340    8.0340 F   0  0  0  0  0  0  0  0  0  0  0  0
   63.6200   47.0760   12.1050 N   0  0  0  0  0  2  0  0  0  0  0  0
   68.7530   47.0330    7.1570 N   0  0  0  0  0  2  0  0  0  0  0  0
   64.4460   47.8080    7.4400 N   0  0  0  0  0  2  0  0  0  0  0  0
   63.2430   45.3710   10.5610 O   0  0  0  0  0  0  0  0  0  0  0  0
   66.3080   49.7980    7.4780 O   0  0  0  0  0  1  0  0  0  0  0  0
   68.5640   46.0780    9.1900 O   0  0  0  0  0  1  0  0  0  0  0  0
  1  3  1  0
  1 10  1  0
  1 23  1  0
  1 33  1  0
  2  3  1  0
  2 25  1  0
  2 32  1  0
  4  5  1  0
  4 27  1  0
  5  6  1  0
  5  7  1  0
  5  8  1  0
  9 11  1  0
  9 15  1  0
  9 20  1  0
 10 19  1  0
 11 12  1  0
 12 13  1  0
 13 14  1  0
 13 29  1  0
 14 15  1  0
 16 17  1  0
 16 20  1  0
 16 31  1  0
 17 18  1  0
 17 34  1  0
 18 32  1  0
 19 23  1  0
 21 22  1  0
 21 31  1  0
 21 35  1  0
 24 25  1  0
 24 30  1  0
 24 33  1  0
 25 26  1  0
 26 27  1  0
 27 28  1  0
 28 30  1  0
M  END
$$$$
