4ewo_A_996_501
     RDKit          3D

 32 34  0  0  0  0  0  0  0  0999 V2000
    4.7380    4.4890  -17.8860 C   0  0  0  0  0  2  0  0  0  0  0  0
    4.6650    6.7960  -16.9890 C   0  0  0  0  0  3  0  0  0  0  0  0
    4.0930    1.6950  -20.5280 C   0  0  0  0  0  2  0  0  0  0  0  0
    7.6050    7.5980  -16.3910 C   0  0  0  0  0  2  0  0  0  0  0  0
    5.5600    6.3810  -15.7520 C   0  0  0  0  0  2  0  0  0  0  0  0
    6.9880    7.7180  -17.7730 C   0  0  0  0  0  3  0  0  0  0  0  0
    5.6100    7.3270  -18.0230 C   0  0  0  0  0  3  0  0  0  0  0  0
    5.2990    7.5440  -19.3850 C   0  0  0  0  0  2  0  0  0  0  0  0
    6.4660    7.5670  -15.3380 C   0  0  0  0  0  0  0  0  0  0  0  0
    4.9370    0.4930  -21.0110 C   0  0  0  0  0  3  0  0  0  0  0  0
    6.3210    0.5690  -21.2330 C   0  0  0  0  0  2  0  0  0  0  0  0
    7.0220   -0.6210  -21.6200 C   0  0  0  0  0  2  0  0  0  0  0  0
    6.3180   -1.8200  -21.8300 C   0  0  0  0  0  2  0  0  0  0  0  0
    4.9540   -1.8680  -21.5800 C   0  0  0  0  0  2  0  0  0  0  0  0
    4.2360   -0.7120  -21.1990 C   0  0  0  0  0  2  0  0  0  0  0  0
    6.8770    8.4540  -21.2270 C   0  0  0  0  0  2  0  0  0  0  0  0
    6.5120    9.8980  -21.5670 C   0  0  0  0  0  0  0  0  0  0  0  0
    5.8280    8.9490  -15.1610 C   0  0  0  0  0  1  0  0  0  0  0  0
    5.0190   10.1980  -21.3010 C   0  0  0  0  0  1  0  0  0  0  0  0
    7.3990   10.8770  -20.7310 C   0  0  0  0  0  1  0  0  0  0  0  0
    6.7760   10.0770  -23.0570 C   0  0  0  0  0  1  0  0  0  0  0  0
    7.1650    7.2050  -14.0090 C   0  0  0  0  0  1  0  0  0  0  0  0
    6.6080    0.5340  -16.7480 C   0  0  0  0  0  1  0  0  0  0  0  0
    6.4500    1.5560  -17.8960 C   0  0  0  0  0  3  0  0  0  0  0  0
    4.8180    2.5500  -19.4940 C   0  0  0  0  0  3  0  0  0  0  0  0
    3.9280    3.6970  -18.9380 C   0  0  0  0  0  3  0  0  0  0  0  0
    3.9380    5.6150  -17.4350 N   0  0  0  0  0  2  0  0  0  0  0  0
    6.4910    8.0310  -19.8920 N   0  0  0  0  0  0  0  0  0  0  0  0
    7.5310    8.1470  -18.9500 N   0  0  0  0  0  2  0  0  0  0  0  0
    5.2140    1.6710  -18.3530 N   0  0  0  0  0  2  0  0  0  0  0  0
    3.5530    4.6330  -19.9890 O   0  0  0  0  0  1  0  0  0  0  0  0
    7.4040    2.2460  -18.3460 O   0  0  0  0  0  1  0  0  0  0  0  0
  1 26  1  0
  1 27  1  0
  2  5  1  0
  2  7  1  0
  2 27  1  0
  3 10  1  0
  3 25  1  0
  4  6  1  0
  4  9  1  0
  5  9  1  0
  6  7  1  0
  6 29  1  0
  7  8  1  0
  8 28  1  0
  9 18  1  0
  9 22  1  0
 10 11  1  0
 10 15  1  0
 11 12  1  0
 12 13  1  0
 13 14  1  0
 14 15  1  0
 16 17  1  0
 16 28  1  0
 17 19  1  0
 17 20  1  0
 17 21  1  0
 23 24  1  0
 24 30  1  0
 24 32  1  0
 25 26  1  0
 25 30  1  0
 26 31  1  0
 28 29  1  0
M  END
$$$$
