4fco_A_0U4_504
     RDKit          3D

 53 57  0  0  0  0  0  0  0  0999 V2000
  -17.8550   19.6710   -3.9830 C   0  0  0  0  0  1  0  0  0  0  0  0
  -26.0960   21.0870    0.8700 C   0  0  0  0  0  1  0  0  0  0  0  0
  -25.9780   17.6330   -0.0390 C   0  0  0  0  0  1  0  0  0  0  0  0
  -17.1190   22.2890   -0.4130 C   0  0  0  0  0  2  0  0  0  0  0  0
  -27.0810   32.4080    5.4000 C   0  0  0  0  0  2  0  0  0  0  0  0
  -20.5930   17.6390   -7.6410 C   0  0  0  0  0  2  0  0  0  0  0  0
  -16.9240   22.4870   -1.7720 C   0  0  0  0  0  2  0  0  0  0  0  0
  -18.0200   23.1150    0.3100 C   0  0  0  0  0  2  0  0  0  0  0  0
  -27.6990   31.1300    5.1940 C   0  0  0  0  0  2  0  0  0  0  0  0
  -27.0570   33.3500    4.3770 C   0  0  0  0  0  2  0  0  0  0  0  0
  -20.2100   16.6670   -6.7180 C   0  0  0  0  0  2  0  0  0  0  0  0
  -20.5120   19.0150   -7.3160 C   0  0  0  0  0  2  0  0  0  0  0  0
  -17.6280   23.5020   -2.4300 C   0  0  0  0  0  2  0  0  0  0  0  0
  -18.7130   24.1260   -0.3440 C   0  0  0  0  0  2  0  0  0  0  0  0
  -28.2780   30.8320    3.9570 C   0  0  0  0  0  2  0  0  0  0  0  0
  -27.6370   33.0530    3.1410 C   0  0  0  0  0  2  0  0  0  0  0  0
  -19.7170   17.0330   -5.4640 C   0  0  0  0  0  2  0  0  0  0  0  0
  -20.0430   19.3850   -6.0610 C   0  0  0  0  0  2  0  0  0  0  0  0
  -21.5650   21.5280   -1.4250 C   0  0  0  0  0  2  0  0  0  0  0  0
  -23.2100   19.7700   -1.1220 C   0  0  0  0  0  2  0  0  0  0  0  0
  -23.7700   22.0730   -0.5490 C   0  0  0  0  0  2  0  0  0  0  0  0
  -24.4200   28.8170   -2.6800 C   0  0  0  0  0  2  0  0  0  0  0  0
  -25.6920   28.2210   -2.0780 C   0  0  0  0  0  2  0  0  0  0  0  0
  -27.8870   28.7610   -0.9140 C   0  0  0  0  0  2  0  0  0  0  0  0
  -25.8730   29.9040   -0.3300 C   0  0  0  0  0  2  0  0  0  0  0  0
  -22.8250   26.9710   -2.4700 C   0  0  0  0  0  2  0  0  0  0  0  0
  -28.6680   29.8230   -0.2250 C   0  0  0  0  0  2  0  0  0  0  0  0
  -26.6440   30.9800    0.3730 C   0  0  0  0  0  2  0  0  0  0  0  0
  -19.2930   25.4590   -2.4380 C   0  0  0  0  0  2  0  0  0  0  0  0
  -28.8890   31.4480    1.5730 C   0  0  0  0  0  2  0  0  0  0  0  0
  -20.9190   19.2010   -2.0380 C   0  0  0  0  0  3  0  0  0  0  0  0
  -22.0930   23.8760   -0.8620 C   0  0  0  0  0  3  0  0  0  0  0  0
  -18.5280   24.3260   -1.7070 C   0  0  0  0  0  3  0  0  0  0  0  0
  -28.2590   31.7740    2.9320 C   0  0  0  0  0  3  0  0  0  0  0  0
  -21.9260   20.1890   -1.5040 C   0  0  0  0  0  3  0  0  0  0  0  0
  -22.4940   22.4630   -0.9380 C   0  0  0  0  0  3  0  0  0  0  0  0
  -19.6410   18.4010   -5.1420 C   0  0  0  0  0  3  0  0  0  0  0  0
  -24.1190   20.7340   -0.6460 C   0  0  0  0  0  3  0  0  0  0  0  0
  -19.1330   18.8470   -3.8070 C   0  0  0  0  0  3  0  0  0  0  0  0
  -21.4080   26.6380   -2.9950 C   0  0  0  0  0  3  0  0  0  0  0  0
  -26.6150   29.3290   -1.3980 C   0  0  0  0  0  3  0  0  0  0  0  0
  -20.7530   25.6910   -2.0260 C   0  0  0  0  0  3  0  0  0  0  0  0
  -23.5240   27.9070   -3.3950 N   0  0  0  0  0  2  0  0  0  0  0  0
  -20.1430   19.6910   -3.1450 N   0  0  0  0  0  2  0  0  0  0  0  0
  -21.2730   24.3060   -1.9580 N   0  0  0  0  0  2  0  0  0  0  0  0
  -25.4710   20.3610   -0.2140 N   0  0  0  0  0  0  0  0  0  0  0  0
  -27.9530   30.5320    0.8210 N   0  0  0  0  0  0  0  0  0  0  0  0
  -20.7600   18.0910   -1.5480 O   0  0  0  0  0  1  0  0  0  0  0  0
  -22.4320   24.6260    0.0240 O   0  0  0  0  0  1  0  0  0  0  0  0
  -27.6990   19.4140   -0.9400 O   0  0  0  0  0  1  0  0  0  0  0  0
  -25.7460   18.8880   -2.3120 O   0  0  0  0  0  1  0  0  0  0  0  0
  -20.7200   27.8050   -3.1530 O   0  0  0  0  0  1  0  0  0  0  0  0
  -26.2620   19.1030   -0.9640 S   0  0  0  0  0  4  0  0  0  0  0  0
  1 39  1  0
  2 46  1  0
  3 53  1  0
  4  7  1  0
  4  8  1  0
  5  9  1  0
  5 10  1  0
  6 11  1  0
  6 12  1  0
  7 13  1  0
  8 14  1  0
  9 15  1  0
 10 16  1  0
 11 17  1  0
 12 18  1  0
 13 33  1  0
 14 33  1  0
 15 34  1  0
 16 34  1  0
 17 37  1  0
 18 37  1  0
 19 35  1  0
 19 36  1  0
 20 35  1  0
 20 38  1  0
 21 36  1  0
 21 38  1  0
 22 23  1  0
 22 43  1  0
 23 41  1  0
 24 27  1  0
 24 41  1  0
 25 28  1  0
 25 41  1  0
 26 40  1  0
 26 43  1  0
 27 47  1  0
 28 47  1  0
 29 33  1  0
 29 42  1  0
 30 34  1  0
 30 47  1  0
 31 35  1  0
 31 44  1  0
 31 48  1  0
 32 36  1  0
 32 45  1  0
 32 49  1  0
 37 39  1  0
 38 46  1  0
 39 44  1  0
 40 42  1  0
 40 52  1  0
 42 45  1  0
 46 53  1  0
 50 53  1  0
 51 53  1  0
M  END
$$$$
