4fm7_A_0UP_501
     RDKit          3D

 33 36  0  0  0  0  0  0  0  0999 V2000
   26.9070   36.8440   45.1420 C   0  0  0  0  0  2  0  0  0  0  0  0
   28.0910   37.5390   41.8990 C   0  0  0  0  0  3  0  0  0  0  0  0
   27.6460   36.3250   41.4120 C   0  0  0  0  0  3  0  0  0  0  0  0
   25.9100   38.9830   45.4520 C   0  0  0  0  0  3  0  0  0  0  0  0
   22.3450   35.3040   43.1560 C   0  0  0  0  0  2  0  0  0  0  0  0
   21.9140   37.7160   43.4530 C   0  0  0  0  0  2  0  0  0  0  0  0
   20.8880   36.1120   44.9670 C   0  0  0  0  0  2  0  0  0  0  0  0
   23.4550   35.5890   42.1630 C   0  0  0  0  0  2  0  0  0  0  0  0
   22.9520   37.9970   42.3860 C   0  0  0  0  0  3  0  0  0  0  0  0
   22.1490   36.4110   44.1600 C   0  0  0  0  0  0  0  0  0  0  0  0
   22.4430   39.1720   41.5810 C   0  0  0  0  0  1  0  0  0  0  0  0
   26.0280   38.5330   41.2850 C   0  0  0  0  0  2  0  0  0  0  0  0
   28.5170   34.2740   39.2890 C   0  0  0  0  0  1  0  0  0  0  0  0
   29.0570   32.9920   41.3310 C   0  0  0  0  0  1  0  0  0  0  0  0
   20.2170   35.0950   47.1330 C   0  0  0  0  0  1  0  0  0  0  0  0
   24.1540   37.1500   40.3330 C   0  0  0  0  0  2  0  0  0  0  0  0
   28.1920   34.0990   40.7610 C   0  0  0  0  0  3  0  0  0  0  0  0
   25.6480   36.2860   45.0580 C   0  0  0  0  0  2  0  0  0  0  0  0
   27.2880   38.6560   41.8310 C   0  0  0  0  0  2  0  0  0  0  0  0
   27.0400   38.2020   45.3200 C   0  0  0  0  0  2  0  0  0  0  0  0
   26.3790   36.2050   40.9090 C   0  0  0  0  0  2  0  0  0  0  0  0
   24.6450   38.4260   45.4100 C   0  0  0  0  0  2  0  0  0  0  0  0
   25.5550   37.3150   40.8480 C   0  0  0  0  0  3  0  0  0  0  0  0
   24.5190   37.0720   45.1610 C   0  0  0  0  0  3  0  0  0  0  0  0
   26.0540   40.3110   45.6380 F   0  0  0  0  0  0  0  0  0  0  0  0
   23.2460   36.4180   45.1710 N   0  0  0  0  0  0  0  0  0  0  0  0
   21.2770   35.2710   46.1150 N   0  0  0  0  0  0  0  0  0  0  0  0
   23.1560   36.8480   41.4360 N   0  0  0  0  0  0  0  0  0  0  0  0
   23.6490   34.5040   46.8140 O   0  0  0  0  0  1  0  0  0  0  0  0
   22.7190   36.6490   47.7190 O   0  0  0  0  0  1  0  0  0  0  0  0
   29.3830   37.5960   42.4020 O   0  0  0  0  0  1  0  0  0  0  0  0
   28.5390   35.2700   41.5190 O   0  0  0  0  0  0  0  0  0  0  0  0
   22.8200   35.6820   46.6560 S   0  0  0  0  0  4  0  0  0  0  0  0
  1 18  1  0
  1 20  1  0
  2  3  1  0
  2 19  1  0
  2 31  1  0
  3 21  1  0
  3 32  1  0
  4 20  1  0
  4 22  1  0
  4 25  1  0
  5  8  1  0
  5 10  1  0
  6  9  1  0
  6 10  1  0
  7 10  1  0
  7 27  1  0
  8 28  1  0
  9 11  1  0
  9 28  1  0
 10 26  1  0
 12 19  1  0
 12 23  1  0
 13 17  1  0
 14 17  1  0
 15 27  1  0
 16 23  1  0
 16 28  1  0
 17 32  1  0
 18 24  1  0
 21 23  1  0
 22 24  1  0
 24 26  1  0
 26 33  1  0
 27 33  1  0
 29 33  1  0
 30 33  1  0
M  END
$$$$
