4fri_A_DWA_404
     RDKit          3D

 27 30  0  0  0  0  0  0  0  0999 V2000
   67.5190   52.9820    9.6340 C   0  0  0  0  0  2  0  0  0  0  0  0
   72.5480   50.1870    8.5260 C   0  0  0  0  0  2  0  0  0  0  0  0
   73.0120   49.3890    7.4970 C   0  0  0  0  0  2  0  0  0  0  0  0
   72.1240   48.6630    6.7170 C   0  0  0  0  0  3  0  0  0  0  0  0
   70.7660   48.7290    7.0160 C   0  0  0  0  0  2  0  0  0  0  0  0
   66.4290   54.9810   11.2800 C   0  0  0  0  0  1  0  0  0  0  0  0
   67.2460   48.6000    6.9970 C   0  0  0  0  0  3  0  0  0  0  0  0
   68.4250   48.1810    8.8840 C   0  0  0  0  0  2  0  0  0  0  0  0
   67.5090   52.8280   11.0230 C   0  0  0  0  0  3  0  0  0  0  0  0
   72.5800   47.8260    5.6780 C   0  0  0  0  0  3  0  0  0  0  0  0
   72.0300   47.8340    4.3970 C   0  0  0  0  0  3  0  0  0  0  0  0
   73.4250   46.0980    3.6720 C   0  0  0  0  0  2  0  0  0  0  0  0
   74.0070   46.0300    4.9290 C   0  0  0  0  0  2  0  0  0  0  0  0
   73.5870   46.8970    5.9340 C   0  0  0  0  0  2  0  0  0  0  0  0
   67.9440   51.6140   11.5530 C   0  0  0  0  0  2  0  0  0  0  0  0
   68.3550   50.5760   10.7030 C   0  0  0  0  0  2  0  0  0  0  0  0
   68.3550   50.7130    9.3100 C   0  0  0  0  0  3  0  0  0  0  0  0
   67.9340   51.9320    8.7940 C   0  0  0  0  0  2  0  0  0  0  0  0
   68.8060   49.5580    8.3550 C   0  0  0  0  0  0  0  0  0  0  0  0
   70.2930   49.5210    8.0550 C   0  0  0  0  0  3  0  0  0  0  0  0
   71.1870   50.2570    8.8190 C   0  0  0  0  0  2  0  0  0  0  0  0
   71.0440   48.7050    4.0780 F   0  0  0  0  0  0  0  0  0  0  0  0
   68.0400   49.6500    7.0980 N   0  0  0  0  0  2  0  0  0  0  0  0
   66.3950   48.4340    6.0010 N   0  0  0  0  0  1  0  0  0  0  0  0
   72.4710   46.9840    3.4590 N   0  0  0  0  0  2  0  0  0  0  0  0
   67.1120   53.8390   11.8750 O   0  0  0  0  0  0  0  0  0  0  0  0
   67.3460   47.7230    8.0390 O   0  0  0  0  0  0  0  0  0  0  0  0
  1  9  1  0
  1 18  1  0
  2  3  1  0
  2 21  1  0
  3  4  1  0
  4  5  1  0
  4 10  1  0
  5 20  1  0
  6 26  1  0
  7 23  1  0
  7 24  1  0
  7 27  1  0
  8 19  1  0
  8 27  1  0
  9 15  1  0
  9 26  1  0
 10 11  1  0
 10 14  1  0
 11 22  1  0
 11 25  1  0
 12 13  1  0
 12 25  1  0
 13 14  1  0
 15 16  1  0
 16 17  1  0
 17 18  1  0
 17 19  1  0
 19 20  1  0
 19 23  1  0
 20 21  1  0
M  END
$$$$
