4frk_A_DWD_405
     RDKit          3D

 30 34  0  0  0  0  0  0  0  0999 V2000
   72.3550   48.6160    6.8450 C   0  0  0  0  0  3  0  0  0  0  0  0
   68.9480   49.3380    8.4960 C   0  0  0  0  0  0  0  0  0  0  0  0
   69.2090   52.1360   11.1180 C   0  0  0  0  0  2  0  0  0  0  0  0
   67.8800   52.2970   11.5000 C   0  0  0  0  0  2  0  0  0  0  0  0
   66.8860   51.4990   10.9200 C   0  0  0  0  0  3  0  0  0  0  0  0
   67.2250   50.5500    9.9430 C   0  0  0  0  0  2  0  0  0  0  0  0
   72.8600   47.7600    5.8490 C   0  0  0  0  0  3  0  0  0  0  0  0
   68.5630   47.9020    8.8940 C   0  0  0  0  0  2  0  0  0  0  0  0
   67.3530   48.5290    7.0320 C   0  0  0  0  0  3  0  0  0  0  0  0
   73.1970   49.4890    7.5390 C   0  0  0  0  0  2  0  0  0  0  0  0
   64.6940   50.6940   11.3200 C   0  0  0  0  0  2  0  0  0  0  0  0
   63.5120   51.3170   12.0860 C   0  0  0  0  0  3  0  0  0  0  0  0
   62.5960   52.1260   11.1700 C   0  0  0  0  0  1  0  0  0  0  0  0
   62.7320   50.2130   12.7800 C   0  0  0  0  0  1  0  0  0  0  0  0
   74.0350   47.0350    6.0540 C   0  0  0  0  0  2  0  0  0  0  0  0
   73.8200   46.0660    3.9680 C   0  0  0  0  0  2  0  0  0  0  0  0
   72.6670   50.3270    8.5380 C   0  0  0  0  0  2  0  0  0  0  0  0
   72.1990   47.5670    4.6340 C   0  0  0  0  0  2  0  0  0  0  0  0
   71.3090   50.2790    8.8580 C   0  0  0  0  0  3  0  0  0  0  0  0
   70.4610   49.3970    8.1660 C   0  0  0  0  0  3  0  0  0  0  0  0
   70.9930   48.5710    7.1680 C   0  0  0  0  0  2  0  0  0  0  0  0
   69.5500   51.1980   10.1580 C   0  0  0  0  0  3  0  0  0  0  0  0
   68.5660   50.3880    9.5620 C   0  0  0  0  0  3  0  0  0  0  0  0
   68.0580   49.6200    7.3170 N   0  0  0  0  0  2  0  0  0  0  0  0
   66.4260   48.4810    6.0650 N   0  0  0  0  0  1  0  0  0  0  0  0
   74.4870   46.2190    5.1090 N   0  0  0  0  0  2  0  0  0  0  0  0
   72.6920   46.7190    3.7420 N   0  0  0  0  0  2  0  0  0  0  0  0
   65.6050   51.7410   11.3280 O   0  0  0  0  0  0  0  0  0  0  0  0
   67.6580   47.4560    7.8240 O   0  0  0  0  0  0  0  0  0  0  0  0
   70.8650   51.1090    9.8560 O   0  0  0  0  0  0  0  0  0  0  0  0
  1  7  1  0
  1 10  1  0
  1 21  1  0
  2  8  1  0
  2 20  1  0
  2 23  1  0
  2 24  1  0
  3  4  1  0
  3 22  1  0
  4  5  1  0
  5  6  1  0
  5 28  1  0
  6 23  1  0
  7 15  1  0
  7 18  1  0
  8 29  1  0
  9 24  1  0
  9 25  1  0
  9 29  1  0
 10 17  1  0
 11 12  1  0
 11 28  1  0
 12 13  1  0
 12 14  1  0
 15 26  1  0
 16 26  1  0
 16 27  1  0
 17 19  1  0
 18 27  1  0
 19 20  1  0
 19 30  1  0
 20 21  1  0
 22 23  1  0
 22 30  1  0
M  END
$$$$
