4fsl_A_0VB_501
     RDKit          3D

 33 35  0  0  0  0  0  0  0  0999 V2000
   -4.7720   17.7340   28.8060 C   0  0  0  0  0  2  0  0  0  0  0  0
   -3.1750   16.8450   30.6260 C   0  0  0  0  0  2  0  0  0  0  0  0
   -3.8700   17.0690   27.7530 C   0  0  0  0  0  2  0  0  0  0  0  0
   -2.2580   16.1780   29.6150 C   0  0  0  0  0  2  0  0  0  0  0  0
   -3.2260   11.4000   34.9980 C   0  0  0  0  0  2  0  0  0  0  0  0
   -5.0910   11.2340   33.2520 C   0  0  0  0  0  2  0  0  0  0  0  0
   -4.4200   17.6590   30.2920 C   0  0  0  0  0  3  0  0  0  0  0  0
   -5.9540   17.9050   32.6240 C   0  0  0  0  0  3  0  0  0  0  0  0
   -4.6440   11.7990   34.5930 C   0  0  0  0  0  3  0  0  0  0  0  0
   -2.3080   10.4630   34.2200 C   0  0  0  0  0  3  0  0  0  0  0  0
   -2.7880    9.8610   32.8960 C   0  0  0  0  0  3  0  0  0  0  0  0
   -2.6080   16.2830   28.1320 C   0  0  0  0  0  3  0  0  0  0  0  0
   -4.1820   10.3030   32.4710 C   0  0  0  0  0  3  0  0  0  0  0  0
   -5.3350   18.2810   31.3230 C   0  0  0  0  0  3  0  0  0  0  0  0
   -6.8100   18.9730   33.2510 C   0  0  0  0  0  3  0  0  0  0  0  0
   -5.8540   16.6390   33.4100 C   0  0  0  0  0  3  0  0  0  0  0  0
   -0.9820    9.4770   31.0730 C   0  0  0  0  0  3  0  0  0  0  0  0
   -5.2710   15.3170   35.5230 C   0  0  0  0  0  3  0  0  0  0  0  0
   -0.9390   10.1680   34.8270 C   0  0  0  0  0  1  0  0  0  0  0  0
   -7.6180   19.0020   34.5450 C   0  0  0  0  0  1  0  0  0  0  0  0
   -0.0050    8.7230   30.1700 C   0  0  0  0  0  1  0  0  0  0  0  0
   -0.4290   15.0020   27.5800 C   0  0  0  0  0  1  0  0  0  0  0  0
   -5.7020   12.7190   35.1310 C   0  0  0  0  0  2  0  0  0  0  0  0
   -5.0270    9.7940   31.0020 Cl  0  0  0  0  0  0  0  0  0  0  0  0
   -5.7330   19.6700   30.9710 N   0  0  0  0  0  2  0  0  0  0  0  0
   -5.3640   16.5790   34.7980 N   0  0  0  0  0  2  0  0  0  0  0  0
   -4.8280   15.1340   36.9220 N   0  0  0  0  0  1  0  0  0  0  0  0
   -1.9100    8.9770   32.1110 N   0  0  0  0  0  2  0  0  0  0  0  0
   -5.7160   14.1370   34.7630 N   0  0  0  0  0  2  0  0  0  0  0  0
   -6.2250   15.4950   32.6400 O   0  0  0  0  0  1  0  0  0  0  0  0
   -0.9920   10.8940   30.8660 O   0  0  0  0  0  1  0  0  0  0  0  0
   -1.6830   15.6230   27.2690 O   0  0  0  0  0  0  0  0  0  0  0  0
   -6.7140   20.3290   32.1050 S   0  0  0  0  0  0  0  0  0  0  0  0
  1  3  1  0
  1  7  1  0
  2  4  1  0
  2  7  1  0
  3 12  1  0
  4 12  1  0
  5  9  1  0
  5 10  1  0
  6  9  1  0
  6 13  1  0
  7 14  1  0
  8 14  1  0
  8 15  1  0
  8 16  1  0
  9 23  1  0
 10 11  1  0
 10 19  1  0
 11 13  1  0
 11 28  1  0
 12 32  1  0
 13 24  1  0
 14 25  1  0
 15 20  1  0
 15 33  1  0
 16 26  1  0
 16 30  1  0
 17 21  1  0
 17 28  1  0
 17 31  1  0
 18 26  1  0
 18 27  1  0
 18 29  1  0
 22 32  1  0
 23 29  1  0
 25 33  1  0
M  END
$$$$
