4fsl_D_0VB_501
     RDKit          3D

 33 35  0  0  0  0  0  0  0  0999 V2000
   73.1290   64.7340   73.4150 C   0  0  0  0  0  2  0  0  0  0  0  0
   71.3800   65.4350   75.1800 C   0  0  0  0  0  2  0  0  0  0  0  0
   72.2530   65.3790   72.3350 C   0  0  0  0  0  2  0  0  0  0  0  0
   70.4840   66.0830   74.1390 C   0  0  0  0  0  2  0  0  0  0  0  0
   71.5580   70.7620   79.9240 C   0  0  0  0  0  2  0  0  0  0  0  0
   73.3610   71.0250   78.1210 C   0  0  0  0  0  2  0  0  0  0  0  0
   72.6930   64.7190   74.8860 C   0  0  0  0  0  3  0  0  0  0  0  0
   74.2420   64.4510   77.2340 C   0  0  0  0  0  3  0  0  0  0  0  0
   72.9710   70.4140   79.4610 C   0  0  0  0  0  3  0  0  0  0  0  0
   70.5980   71.6990   79.1990 C   0  0  0  0  0  3  0  0  0  0  0  0
   71.0250   72.3470   77.8760 C   0  0  0  0  0  3  0  0  0  0  0  0
   70.9200   66.0660   72.6780 C   0  0  0  0  0  3  0  0  0  0  0  0
   72.4120   71.9580   77.3900 C   0  0  0  0  0  3  0  0  0  0  0  0
   73.6150   64.1120   75.9210 C   0  0  0  0  0  3  0  0  0  0  0  0
   75.1160   63.3740   77.8220 C   0  0  0  0  0  3  0  0  0  0  0  0
   74.1400   65.6720   78.0800 C   0  0  0  0  0  3  0  0  0  0  0  0
   69.2580   72.7850   76.0200 C   0  0  0  0  0  3  0  0  0  0  0  0
   73.4800   66.9100   80.2170 C   0  0  0  0  0  3  0  0  0  0  0  0
   69.2440   71.9450   79.8520 C   0  0  0  0  0  1  0  0  0  0  0  0
   75.9350   63.3120   79.1080 C   0  0  0  0  0  1  0  0  0  0  0  0
   68.2870   73.5760   75.1480 C   0  0  0  0  0  1  0  0  0  0  0  0
   68.7450   67.3320   72.0840 C   0  0  0  0  0  1  0  0  0  0  0  0
   74.0590   69.4990   79.9420 C   0  0  0  0  0  2  0  0  0  0  0  0
   73.1670   72.5480   75.8940 Cl  0  0  0  0  0  0  0  0  0  0  0  0
   74.0390   62.7470   75.5260 N   0  0  0  0  0  2  0  0  0  0  0  0
   73.5640   65.6810   79.4380 N   0  0  0  0  0  2  0  0  0  0  0  0
   72.9400   67.0740   81.5800 N   0  0  0  0  0  1  0  0  0  0  0  0
   70.1260   73.2410   77.1250 N   0  0  0  0  0  2  0  0  0  0  0  0
   74.0310   68.0910   79.5360 N   0  0  0  0  0  2  0  0  0  0  0  0
   74.6170   66.8280   77.3960 O   0  0  0  0  0  1  0  0  0  0  0  0
   69.3280   71.3900   75.7010 O   0  0  0  0  0  1  0  0  0  0  0  0
   70.0010   66.7030   71.7960 O   0  0  0  0  0  0  0  0  0  0  0  0
   75.0360   62.0600   76.6300 S   0  0  0  0  0  0  0  0  0  0  0  0
  1  3  1  0
  1  7  1  0
  2  4  1  0
  2  7  1  0
  3 12  1  0
  4 12  1  0
  5  9  1  0
  5 10  1  0
  6  9  1  0
  6 13  1  0
  7 14  1  0
  8 14  1  0
  8 15  1  0
  8 16  1  0
  9 23  1  0
 10 11  1  0
 10 19  1  0
 11 13  1  0
 11 28  1  0
 12 32  1  0
 13 24  1  0
 14 25  1  0
 15 20  1  0
 15 33  1  0
 16 26  1  0
 16 30  1  0
 17 21  1  0
 17 28  1  0
 17 31  1  0
 18 26  1  0
 18 27  1  0
 18 29  1  0
 22 32  1  0
 23 29  1  0
 25 33  1  0
M  END
$$$$
