4fsl_B_0VB_501
     RDKit          3D

 33 35  0  0  0  0  0  0  0  0999 V2000
   36.1500   60.4230   28.6290 C   0  0  0  0  0  2  0  0  0  0  0  0
   34.3720   61.2360   30.3120 C   0  0  0  0  0  2  0  0  0  0  0  0
   35.2990   61.0150   27.4980 C   0  0  0  0  0  2  0  0  0  0  0  0
   33.4980   61.8340   29.2160 C   0  0  0  0  0  2  0  0  0  0  0  0
   34.4970   66.9280   34.6920 C   0  0  0  0  0  2  0  0  0  0  0  0
   36.3910   66.9860   32.9890 C   0  0  0  0  0  2  0  0  0  0  0  0
   35.6880   60.4940   30.0880 C   0  0  0  0  0  3  0  0  0  0  0  0
   37.2070   60.3340   32.4630 C   0  0  0  0  0  3  0  0  0  0  0  0
   35.9130   66.4790   34.3460 C   0  0  0  0  0  3  0  0  0  0  0  0
   33.6060   67.8420   33.8550 C   0  0  0  0  0  3  0  0  0  0  0  0
   34.1170   68.3780   32.5200 C   0  0  0  0  0  3  0  0  0  0  0  0
   33.9660   61.7310   27.7610 C   0  0  0  0  0  3  0  0  0  0  0  0
   35.5090   67.8950   32.1480 C   0  0  0  0  0  3  0  0  0  0  0  0
   36.5970   59.9300   31.1630 C   0  0  0  0  0  3  0  0  0  0  0  0
   38.0840   59.2720   33.1030 C   0  0  0  0  0  3  0  0  0  0  0  0
   37.1210   61.6060   33.2510 C   0  0  0  0  0  3  0  0  0  0  0  0
   32.3840   68.7220   30.6220 C   0  0  0  0  0  3  0  0  0  0  0  0
   36.8040   62.9090   35.4700 C   0  0  0  0  0  3  0  0  0  0  0  0
   32.2290   68.1880   34.4230 C   0  0  0  0  0  1  0  0  0  0  0  0
   38.8880   59.2560   34.4020 C   0  0  0  0  0  1  0  0  0  0  0  0
   31.4470   69.4450   29.6560 C   0  0  0  0  0  1  0  0  0  0  0  0
   31.8990   63.0990   26.9750 C   0  0  0  0  0  1  0  0  0  0  0  0
   36.9360   65.5620   34.9640 C   0  0  0  0  0  2  0  0  0  0  0  0
   36.3740   68.3410   30.6730 Cl  0  0  0  0  0  0  0  0  0  0  0  0
   37.0230   58.5410   30.8450 N   0  0  0  0  0  2  0  0  0  0  0  0
   36.8860   61.6560   34.7230 N   0  0  0  0  0  2  0  0  0  0  0  0
   36.6540   63.0250   36.9640 N   0  0  0  0  0  1  0  0  0  0  0  0
   33.2740   69.2490   31.6790 N   0  0  0  0  0  2  0  0  0  0  0  0
   36.9990   64.1300   34.6430 N   0  0  0  0  0  2  0  0  0  0  0  0
   37.2590   62.7640   32.4050 O   0  0  0  0  0  1  0  0  0  0  0  0
   32.3990   67.2990   30.4680 O   0  0  0  0  0  1  0  0  0  0  0  0
   33.0880   62.3140   26.8000 O   0  0  0  0  0  0  0  0  0  0  0  0
   38.0120   57.8920   31.9810 S   0  0  0  0  0  0  0  0  0  0  0  0
  1  3  1  0
  1  7  1  0
  2  4  1  0
  2  7  1  0
  3 12  1  0
  4 12  1  0
  5  9  1  0
  5 10  1  0
  6  9  1  0
  6 13  1  0
  7 14  1  0
  8 14  1  0
  8 15  1  0
  8 16  1  0
  9 23  1  0
 10 11  1  0
 10 19  1  0
 11 13  1  0
 11 28  1  0
 12 32  1  0
 13 24  1  0
 14 25  1  0
 15 20  1  0
 15 33  1  0
 16 26  1  0
 16 30  1  0
 17 21  1  0
 17 28  1  0
 17 31  1  0
 18 26  1  0
 18 27  1  0
 18 29  1  0
 22 32  1  0
 23 29  1  0
 25 33  1  0
M  END
$$$$
