4gid_D_LPD_502
     RDKit          3D

  8  8  0  0  0  0  0  0  0  0999 V2000
   56.3300   49.4310   44.9330 C   0  0  0  0  0  3  0  0  0  0  0  0
   57.3220   48.6710   44.0270 C   0  0  0  0  0  3  0  0  0  0  0  0
   57.8490   47.3010   44.4660 C   0  0  0  0  0  2  0  0  0  0  0  0
   59.6940   48.9070   44.2800 C   0  0  0  0  0  2  0  0  0  0  0  0
   59.3790   47.3960   44.3290 C   0  0  0  0  0  2  0  0  0  0  0  0
   58.4880   49.5290   43.6840 N   0  0  0  0  0  2  0  0  0  0  0  0
   55.2410   48.7230   45.3850 N   0  0  0  0  0  1  0  0  0  0  0  0
   56.4980   50.6150   45.2350 O   0  0  0  0  0  1  0  0  0  0  0  0
  1  2  1  0
  1  7  1  0
  1  8  1  0
  2  3  1  0
  2  6  1  0
  3  5  1  0
  4  5  1  0
  4  6  1  0
M  END
$$$$
