4gid_A_LPD_502
     RDKit          3D

  8  8  0  0  0  0  0  0  0  0999 V2000
   23.9900   -6.6170    2.0820 C   0  0  0  0  0  3  0  0  0  0  0  0
   23.0840   -5.8480    1.1050 C   0  0  0  0  0  3  0  0  0  0  0  0
   22.4720   -4.5450    1.5920 C   0  0  0  0  0  2  0  0  0  0  0  0
   20.6920   -6.1600    1.1210 C   0  0  0  0  0  2  0  0  0  0  0  0
   20.9520   -4.6790    1.3550 C   0  0  0  0  0  2  0  0  0  0  0  0
   21.9780   -6.7120    0.6180 N   0  0  0  0  0  2  0  0  0  0  0  0
   25.0390   -5.8860    2.6290 N   0  0  0  0  0  1  0  0  0  0  0  0
   23.7970   -7.8250    2.3610 O   0  0  0  0  0  1  0  0  0  0  0  0
  1  2  1  0
  1  7  1  0
  1  8  1  0
  2  3  1  0
  2  6  1  0
  3  5  1  0
  4  5  1  0
  4  6  1  0
M  END
$$$$
