4gid_C_0GH_501
     RDKit          3D

 47 49  0  0  0  0  0  0  0  0999 V2000
    7.4860   41.9280   16.8480 C   0  0  0  0  0  1  0  0  0  0  0  0
    9.9660   43.8100    7.9780 C   0  0  0  0  0  2  0  0  0  0  0  0
   10.6450   44.4690    8.9970 C   0  0  0  0  0  2  0  0  0  0  0  0
    9.9570   45.3300    9.8450 C   0  0  0  0  0  2  0  0  0  0  0  0
    8.5860   45.5140    9.6970 C   0  0  0  0  0  3  0  0  0  0  0  0
    7.9100   44.8580    8.6750 C   0  0  0  0  0  2  0  0  0  0  0  0
    8.6010   44.0120    7.8140 C   0  0  0  0  0  2  0  0  0  0  0  0
    6.6850   45.1820   12.5010 C   0  0  0  0  0  3  0  0  0  0  0  0
    4.8730   42.5760   14.3680 C   0  0  0  0  0  3  0  0  0  0  0  0
    3.6240   42.6460   13.7550 C   0  0  0  0  0  2  0  0  0  0  0  0
    3.3840   43.5500   12.7230 C   0  0  0  0  0  3  0  0  0  0  0  0
    4.3940   44.4140   12.3150 C   0  0  0  0  0  2  0  0  0  0  0  0
    5.6300   44.3940   12.9500 C   0  0  0  0  0  3  0  0  0  0  0  0
    5.8610   43.4660   13.9610 C   0  0  0  0  0  2  0  0  0  0  0  0
    2.1150   43.7270   12.1780 C   0  0  0  0  0  3  0  0  0  0  0  0
    0.8390   44.4340   10.1960 C   0  0  0  0  0  3  0  0  0  0  0  0
    0.2980   43.2130    9.4450 C   0  0  0  0  0  2  0  0  0  0  0  0
    1.0300   45.6050    9.2290 C   0  0  0  0  0  2  0  0  0  0  0  0
    1.8150   46.5980    9.8060 C   0  0  0  0  0  3  0  0  0  0  0  0
    2.8870   47.1250    9.0930 C   0  0  0  0  0  2  0  0  0  0  0  0
    3.6870   48.1100    9.6620 C   0  0  0  0  0  2  0  0  0  0  0  0
    3.4140   48.5680   10.9470 C   0  0  0  0  0  2  0  0  0  0  0  0
    2.3390   48.0490   11.6610 C   0  0  0  0  0  2  0  0  0  0  0  0
    1.5500   47.0530   11.0930 C   0  0  0  0  0  2  0  0  0  0  0  0
   -1.1980   41.4030   10.2370 C   0  0  0  0  0  3  0  0  0  0  0  0
   -1.2290   40.0570   10.9690 C   0  0  0  0  0  3  0  0  0  0  0  0
   -0.5750   40.0970   12.3520 C   0  0  0  0  0  1  0  0  0  0  0  0
   -6.0140   42.4020    8.2650 C   0  0  0  0  0  1  0  0  0  0  0  0
   -5.5300   43.4800    9.2350 C   0  0  0  0  0  3  0  0  0  0  0  0
   -6.7360   44.2000    9.8420 C   0  0  0  0  0  1  0  0  0  0  0  0
   -4.7030   42.8340   10.3500 C   0  0  0  0  0  2  0  0  0  0  0  0
   -2.3810   42.2930   10.6340 C   0  0  0  0  0  3  0  0  0  0  0  0
    7.8790   46.2190   10.6650 C   0  0  0  0  0  3  0  0  0  0  0  0
    7.3820   47.5490   10.0950 C   0  0  0  0  0  1  0  0  0  0  0  0
    3.8680   41.1980   15.9930 C   0  0  0  0  0  1  0  0  0  0  0  0
    5.0490   41.9420   15.5290 N   0  0  0  0  0  0  0  0  0  0  0  0
    2.0980   44.1600   10.9090 N   0  0  0  0  0  2  0  0  0  0  0  0
    0.1010   42.0780   10.3600 N   0  0  0  0  0  2  0  0  0  0  0  0
   -3.5630   42.1000    9.8080 N   0  0  0  0  0  2  0  0  0  0  0  0
    6.7660   45.4090   11.1840 N   0  0  0  0  0  2  0  0  0  0  0  0
    6.1300   39.6660   16.2110 O   0  0  0  0  0  1  0  0  0  0  0  0
    7.1940   40.9740   14.3570 O   0  0  0  0  0  1  0  0  0  0  0  0
    7.4010   45.7800   13.3040 O   0  0  0  0  0  1  0  0  0  0  0  0
    1.0960   43.3830   12.7780 O   0  0  0  0  0  1  0  0  0  0  0  0
   -2.5230   39.4480   10.9220 O   0  0  0  0  0  1  0  0  0  0  0  0
   -2.4070   42.9280   11.6870 O   0  0  0  0  0  1  0  0  0  0  0  0
    6.4450   41.0680   15.6860 S   0  0  0  0  0  4  0  0  0  0  0  0
  1 47  1  0
  2  3  1  0
  2  7  1  0
  3  4  1  0
  4  5  1  0
  5  6  1  0
  5 33  1  0
  6  7  1  0
  8 13  1  0
  8 40  1  0
  8 43  1  0
  9 10  1  0
  9 14  1  0
  9 36  1  0
 10 11  1  0
 11 12  1  0
 11 15  1  0
 12 13  1  0
 13 14  1  0
 15 37  1  0
 15 44  1  0
 16 17  1  0
 16 18  1  0
 16 37  1  0
 17 38  1  0
 18 19  1  0
 19 20  1  0
 19 24  1  0
 20 21  1  0
 21 22  1  0
 22 23  1  0
 23 24  1  0
 25 26  1  0
 25 32  1  0
 25 38  1  0
 26 27  1  0
 26 45  1  0
 28 29  1  0
 29 30  1  0
 29 31  1  0
 31 39  1  0
 32 39  1  0
 32 46  1  0
 33 34  1  0
 33 40  1  0
 35 36  1  0
 36 47  1  0
 41 47  1  0
 42 47  1  0
M  END
$$$$
