4gid_A_0GH_501
     RDKit          3D

 47 49  0  0  0  0  0  0  0  0999 V2000
   35.8860   -2.0180   16.6380 C   0  0  0  0  0  1  0  0  0  0  0  0
   33.1900   -3.8500    7.9860 C   0  0  0  0  0  2  0  0  0  0  0  0
   32.6490   -4.6400    8.9940 C   0  0  0  0  0  2  0  0  0  0  0  0
   33.4700   -5.4970    9.7240 C   0  0  0  0  0  2  0  0  0  0  0  0
   34.8310   -5.5730    9.4540 C   0  0  0  0  0  3  0  0  0  0  0  0
   35.3660   -4.7930    8.4320 C   0  0  0  0  0  2  0  0  0  0  0  0
   34.5520   -3.9280    7.7070 C   0  0  0  0  0  2  0  0  0  0  0  0
   36.7290   -5.2760   12.2270 C   0  0  0  0  0  3  0  0  0  0  0  0
   38.5080   -2.6970   14.1650 C   0  0  0  0  0  3  0  0  0  0  0  0
   39.7370   -2.7010   13.5060 C   0  0  0  0  0  2  0  0  0  0  0  0
   39.9770   -3.5540   12.4310 C   0  0  0  0  0  3  0  0  0  0  0  0
   38.9820   -4.4400   12.0330 C   0  0  0  0  0  2  0  0  0  0  0  0
   37.7670   -4.4860   12.7070 C   0  0  0  0  0  3  0  0  0  0  0  0
   37.5450   -3.6220   13.7750 C   0  0  0  0  0  2  0  0  0  0  0  0
   41.2570   -3.7410   11.9150 C   0  0  0  0  0  3  0  0  0  0  0  0
   42.5960   -4.4150    9.9860 C   0  0  0  0  0  3  0  0  0  0  0  0
   43.1900   -3.2130    9.2450 C   0  0  0  0  0  2  0  0  0  0  0  0
   42.4160   -5.5960    9.0260 C   0  0  0  0  0  2  0  0  0  0  0  0
   41.7140   -6.6480    9.6120 C   0  0  0  0  0  3  0  0  0  0  0  0
   40.7020   -7.2960    8.9110 C   0  0  0  0  0  2  0  0  0  0  0  0
   39.9550   -8.3050    9.5120 C   0  0  0  0  0  2  0  0  0  0  0  0
   40.2100   -8.6710   10.8290 C   0  0  0  0  0  2  0  0  0  0  0  0
   41.2180   -8.0210   11.5330 C   0  0  0  0  0  2  0  0  0  0  0  0
   41.9720   -7.0220   10.9270 C   0  0  0  0  0  2  0  0  0  0  0  0
   44.6790   -1.4430    9.9430 C   0  0  0  0  0  3  0  0  0  0  0  0
   44.7780   -0.0930   10.6690 C   0  0  0  0  0  3  0  0  0  0  0  0
   44.1370   -0.1340   12.0570 C   0  0  0  0  0  1  0  0  0  0  0  0
   49.5370   -2.5550    8.2710 C   0  0  0  0  0  1  0  0  0  0  0  0
   48.9440   -3.5780    9.2390 C   0  0  0  0  0  3  0  0  0  0  0  0
   50.0680   -4.4590    9.7920 C   0  0  0  0  0  1  0  0  0  0  0  0
   48.1820   -2.8490   10.3470 C   0  0  0  0  0  2  0  0  0  0  0  0
   45.8260   -2.3550   10.4130 C   0  0  0  0  0  3  0  0  0  0  0  0
   35.6560   -6.3180   10.2940 C   0  0  0  0  0  3  0  0  0  0  0  0
   36.2840   -7.4870    9.5320 C   0  0  0  0  0  1  0  0  0  0  0  0
   39.4840   -1.1980   15.6850 C   0  0  0  0  0  1  0  0  0  0  0  0
   38.3320   -2.0310   15.3090 N   0  0  0  0  0  0  0  0  0  0  0  0
   41.3080   -4.1170   10.6290 N   0  0  0  0  0  2  0  0  0  0  0  0
   43.3350   -2.0220   10.0970 N   0  0  0  0  0  2  0  0  0  0  0  0
   47.1100   -2.0110    9.7820 N   0  0  0  0  0  2  0  0  0  0  0  0
   36.7090   -5.4920   10.9040 N   0  0  0  0  0  2  0  0  0  0  0  0
   37.2200    0.2310   15.9630 O   0  0  0  0  0  1  0  0  0  0  0  0
   36.1900   -1.1020   14.1240 O   0  0  0  0  0  1  0  0  0  0  0  0
   35.9770   -5.8600   13.0060 O   0  0  0  0  0  1  0  0  0  0  0  0
   42.2680   -3.5630   12.5920 O   0  0  0  0  0  1  0  0  0  0  0  0
   46.1190    0.4110   10.6990 O   0  0  0  0  0  1  0  0  0  0  0  0
   45.8020   -2.8950   11.5220 O   0  0  0  0  0  1  0  0  0  0  0  0
   36.9310   -1.1840   15.4610 S   0  0  0  0  0  4  0  0  0  0  0  0
  1 47  1  0
  2  3  1  0
  2  7  1  0
  3  4  1  0
  4  5  1  0
  5  6  1  0
  5 33  1  0
  6  7  1  0
  8 13  1  0
  8 40  1  0
  8 43  1  0
  9 10  1  0
  9 14  1  0
  9 36  1  0
 10 11  1  0
 11 12  1  0
 11 15  1  0
 12 13  1  0
 13 14  1  0
 15 37  1  0
 15 44  1  0
 16 17  1  0
 16 18  1  0
 16 37  1  0
 17 38  1  0
 18 19  1  0
 19 20  1  0
 19 24  1  0
 20 21  1  0
 21 22  1  0
 22 23  1  0
 23 24  1  0
 25 26  1  0
 25 32  1  0
 25 38  1  0
 26 27  1  0
 26 45  1  0
 28 29  1  0
 29 30  1  0
 29 31  1  0
 31 39  1  0
 32 39  1  0
 32 46  1  0
 33 34  1  0
 33 40  1  0
 35 36  1  0
 36 47  1  0
 41 47  1  0
 42 47  1  0
M  END
$$$$
