4gid_B_0GH_501
     RDKit          3D

 47 49  0  0  0  0  0  0  0  0999 V2000
   73.1090    1.1160   61.1150 C   0  0  0  0  0  1  0  0  0  0  0  0
   70.7110   -0.8360   52.3300 C   0  0  0  0  0  2  0  0  0  0  0  0
   70.0590   -1.5190   53.3520 C   0  0  0  0  0  2  0  0  0  0  0  0
   70.7780   -2.3390   54.2140 C   0  0  0  0  0  2  0  0  0  0  0  0
   72.1550   -2.4840   54.0680 C   0  0  0  0  0  3  0  0  0  0  0  0
   72.8020   -1.8190   53.0330 C   0  0  0  0  0  2  0  0  0  0  0  0
   72.0820   -0.9980   52.1680 C   0  0  0  0  0  2  0  0  0  0  0  0
   73.9640   -2.1550   56.9320 C   0  0  0  0  0  3  0  0  0  0  0  0
   75.7790    0.4490   58.7940 C   0  0  0  0  0  3  0  0  0  0  0  0
   77.0350    0.3550   58.1930 C   0  0  0  0  0  2  0  0  0  0  0  0
   77.2750   -0.5430   57.1580 C   0  0  0  0  0  3  0  0  0  0  0  0
   76.2560   -1.3970   56.7470 C   0  0  0  0  0  2  0  0  0  0  0  0
   75.0190   -1.3670   57.3830 C   0  0  0  0  0  3  0  0  0  0  0  0
   74.7880   -0.4430   58.3990 C   0  0  0  0  0  2  0  0  0  0  0  0
   78.5480   -0.6980   56.6110 C   0  0  0  0  0  3  0  0  0  0  0  0
   79.8280   -1.3490   54.6030 C   0  0  0  0  0  3  0  0  0  0  0  0
   80.2850   -0.1210   53.8120 C   0  0  0  0  0  2  0  0  0  0  0  0
   79.6370   -2.5120   53.6250 C   0  0  0  0  0  2  0  0  0  0  0  0
   78.8920   -3.5370   54.1950 C   0  0  0  0  0  3  0  0  0  0  0  0
   77.8680   -4.1260   53.4640 C   0  0  0  0  0  2  0  0  0  0  0  0
   77.1430   -5.1850   54.0020 C   0  0  0  0  0  2  0  0  0  0  0  0
   77.4400   -5.6550   55.2770 C   0  0  0  0  0  2  0  0  0  0  0  0
   78.4500   -5.0510   56.0180 C   0  0  0  0  0  2  0  0  0  0  0  0
   79.1700   -3.9900   55.4810 C   0  0  0  0  0  2  0  0  0  0  0  0
   81.7810    1.6510   54.5670 C   0  0  0  0  0  3  0  0  0  0  0  0
   81.8550    3.0070   55.2810 C   0  0  0  0  0  3  0  0  0  0  0  0
   81.1080    3.0470   56.6160 C   0  0  0  0  0  1  0  0  0  0  0  0
   87.3490   -1.1410   54.1160 C   0  0  0  0  0  1  0  0  0  0  0  0
   86.4940    0.1180   53.9750 C   0  0  0  0  0  3  0  0  0  0  0  0
   86.3810    0.4720   52.4940 C   0  0  0  0  0  1  0  0  0  0  0  0
   85.0990   -0.0970   54.5570 C   0  0  0  0  0  2  0  0  0  0  0  0
   82.9510    0.7460   54.9840 C   0  0  0  0  0  3  0  0  0  0  0  0
   72.8730   -3.2280   54.9990 C   0  0  0  0  0  3  0  0  0  0  0  0
   73.4910   -4.4460   54.3090 C   0  0  0  0  0  1  0  0  0  0  0  0
   76.7550    2.0150   60.2380 C   0  0  0  0  0  1  0  0  0  0  0  0
   75.5960    1.1760   59.8980 N   0  0  0  0  0  0  0  0  0  0  0  0
   78.5740   -1.1000   55.3320 N   0  0  0  0  0  2  0  0  0  0  0  0
   80.4460    1.0450   54.6950 N   0  0  0  0  0  2  0  0  0  0  0  0
   84.2660    1.1020   54.4340 N   0  0  0  0  0  2  0  0  0  0  0  0
   73.9320   -2.4130   55.6160 N   0  0  0  0  0  2  0  0  0  0  0  0
   74.4140    3.4180   60.5290 O   0  0  0  0  0  1  0  0  0  0  0  0
   73.5030    2.0880   58.6230 O   0  0  0  0  0  1  0  0  0  0  0  0
   73.1920   -2.6660   57.7420 O   0  0  0  0  0  1  0  0  0  0  0  0
   79.5690   -0.4480   57.2530 O   0  0  0  0  0  1  0  0  0  0  0  0
   83.1990    3.5000   55.3370 O   0  0  0  0  0  1  0  0  0  0  0  0
   82.8950    0.0030   55.9610 O   0  0  0  0  0  1  0  0  0  0  0  0
   74.1700    2.0060   59.9970 S   0  0  0  0  0  4  0  0  0  0  0  0
  1 47  1  0
  2  3  1  0
  2  7  1  0
  3  4  1  0
  4  5  1  0
  5  6  1  0
  5 33  1  0
  6  7  1  0
  8 13  1  0
  8 40  1  0
  8 43  1  0
  9 10  1  0
  9 14  1  0
  9 36  1  0
 10 11  1  0
 11 12  1  0
 11 15  1  0
 12 13  1  0
 13 14  1  0
 15 37  1  0
 15 44  1  0
 16 17  1  0
 16 18  1  0
 16 37  1  0
 17 38  1  0
 18 19  1  0
 19 20  1  0
 19 24  1  0
 20 21  1  0
 21 22  1  0
 22 23  1  0
 23 24  1  0
 25 26  1  0
 25 32  1  0
 25 38  1  0
 26 27  1  0
 26 45  1  0
 28 29  1  0
 29 30  1  0
 29 31  1  0
 31 39  1  0
 32 39  1  0
 32 46  1  0
 33 34  1  0
 33 40  1  0
 35 36  1  0
 36 47  1  0
 41 47  1  0
 42 47  1  0
M  END
$$$$
