4gid_D_0GH_501
     RDKit          3D

 47 49  0  0  0  0  0  0  0  0999 V2000
   44.9890   45.4090   60.0790 C   0  0  0  0  0  1  0  0  0  0  0  0
   47.4030   46.8680   50.9160 C   0  0  0  0  0  2  0  0  0  0  0  0
   48.0850   47.6460   51.8430 C   0  0  0  0  0  2  0  0  0  0  0  0
   47.3770   48.4970   52.6860 C   0  0  0  0  0  2  0  0  0  0  0  0
   45.9930   48.5900   52.5960 C   0  0  0  0  0  3  0  0  0  0  0  0
   45.3180   47.8420   51.6370 C   0  0  0  0  0  2  0  0  0  0  0  0
   46.0210   46.9760   50.8070 C   0  0  0  0  0  2  0  0  0  0  0  0
   44.2210   48.4460   55.4890 C   0  0  0  0  0  3  0  0  0  0  0  0
   42.4120   45.9920   57.5610 C   0  0  0  0  0  3  0  0  0  0  0  0
   41.1630   46.0230   56.9460 C   0  0  0  0  0  2  0  0  0  0  0  0
   40.9180   46.8560   55.8570 C   0  0  0  0  0  3  0  0  0  0  0  0
   41.9330   47.6810   55.3860 C   0  0  0  0  0  2  0  0  0  0  0  0
   43.1700   47.7030   56.0200 C   0  0  0  0  0  3  0  0  0  0  0  0
   43.3950   46.8660   57.1080 C   0  0  0  0  0  2  0  0  0  0  0  0
   39.6300   47.0500   55.3630 C   0  0  0  0  0  3  0  0  0  0  0  0
   38.2960   47.6830   53.4020 C   0  0  0  0  0  3  0  0  0  0  0  0
   37.7310   46.4460   52.6990 C   0  0  0  0  0  2  0  0  0  0  0  0
   38.5060   48.8110   52.3870 C   0  0  0  0  0  2  0  0  0  0  0  0
   39.3230   49.8170   52.8980 C   0  0  0  0  0  3  0  0  0  0  0  0
   40.3620   50.3290   52.1270 C   0  0  0  0  0  2  0  0  0  0  0  0
   41.1810   51.3320   52.6320 C   0  0  0  0  0  2  0  0  0  0  0  0
   40.9720   51.8270   53.9160 C   0  0  0  0  0  2  0  0  0  0  0  0
   39.9380   51.3150   54.6910 C   0  0  0  0  0  2  0  0  0  0  0  0
   39.1210   50.3090   54.1820 C   0  0  0  0  0  2  0  0  0  0  0  0
   36.2000   44.7610   53.4940 C   0  0  0  0  0  3  0  0  0  0  0  0
   36.0610   43.3920   54.1700 C   0  0  0  0  0  3  0  0  0  0  0  0
   36.6690   43.3440   55.5730 C   0  0  0  0  0  1  0  0  0  0  0  0
   31.2920   45.7200   51.8460 C   0  0  0  0  0  1  0  0  0  0  0  0
   31.8050   46.7760   52.8270 C   0  0  0  0  0  3  0  0  0  0  0  0
   30.6030   47.4900   53.4520 C   0  0  0  0  0  1  0  0  0  0  0  0
   32.7800   46.1800   54.1700 C   0  0  0  0  0  2  0  0  0  0  0  0
   35.0720   45.6840   53.9680 C   0  0  0  0  0  3  0  0  0  0  0  0
   45.2990   49.3700   53.5150 C   0  0  0  0  0  3  0  0  0  0  0  0
   44.7270   50.6140   52.8330 C   0  0  0  0  0  1  0  0  0  0  0  0
   41.4260   44.5740   59.1530 C   0  0  0  0  0  1  0  0  0  0  0  0
   42.5860   45.3720   58.7290 N   0  0  0  0  0  0  0  0  0  0  0  0
   39.5740   47.3910   54.0670 N   0  0  0  0  0  2  0  0  0  0  0  0
   37.5570   45.3170   53.6250 N   0  0  0  0  0  2  0  0  0  0  0  0
   33.7870   45.3600   53.3290 N   0  0  0  0  0  2  0  0  0  0  0  0
   44.2240   48.5980   54.1580 N   0  0  0  0  0  2  0  0  0  0  0  0
   43.6750   43.1290   59.4810 O   0  0  0  0  0  1  0  0  0  0  0  0
   44.7630   44.3820   57.6060 O   0  0  0  0  0  1  0  0  0  0  0  0
   44.9520   49.1130   56.2190 O   0  0  0  0  0  1  0  0  0  0  0  0
   38.6280   46.8490   56.0470 O   0  0  0  0  0  1  0  0  0  0  0  0
   34.7430   42.8360   54.0800 O   0  0  0  0  0  1  0  0  0  0  0  0
   35.1250   46.1820   55.0940 O   0  0  0  0  0  1  0  0  0  0  0  0
   43.9810   44.5170   58.9140 S   0  0  0  0  0  4  0  0  0  0  0  0
  1 47  1  0
  2  3  1  0
  2  7  1  0
  3  4  1  0
  4  5  1  0
  5  6  1  0
  5 33  1  0
  6  7  1  0
  8 13  1  0
  8 40  1  0
  8 43  1  0
  9 10  1  0
  9 14  1  0
  9 36  1  0
 10 11  1  0
 11 12  1  0
 11 15  1  0
 12 13  1  0
 13 14  1  0
 15 37  1  0
 15 44  1  0
 16 17  1  0
 16 18  1  0
 16 37  1  0
 17 38  1  0
 18 19  1  0
 19 20  1  0
 19 24  1  0
 20 21  1  0
 21 22  1  0
 22 23  1  0
 23 24  1  0
 25 26  1  0
 25 32  1  0
 25 38  1  0
 26 27  1  0
 26 45  1  0
 28 29  1  0
 29 30  1  0
 29 31  1  0
 31 39  1  0
 32 39  1  0
 32 46  1  0
 33 34  1  0
 33 40  1  0
 35 36  1  0
 36 47  1  0
 41 47  1  0
 42 47  1  0
M  END
$$$$
