4gmi_A_0XA_401
     RDKit          3D

 74192  0  0  0  0  0  0  0  0999 V2000
   -8.0840   -0.1770   15.0130 C   0  0  0  0  0  7  0  0  0  0  0  0
   -7.9710   -0.2150   14.9980 C   0  0  0  0  0  7  0  0  0  0  0  0
   -4.4020   -3.2980   17.7870 C   0  0  0  0  0  5  0  0  0  0  0  0
   -4.2220   -3.2870   17.9670 C   0  0  0  0  0  5  0  0  0  0  0  0
   -3.8350   -3.7430   19.3660 C   0  0  0  0  0  5  0  0  0  0  0  0
   -3.7320   -3.6350   19.1110 C   0  0  0  0  0  5  0  0  0  0  0  0
   -4.3810   -2.8210   20.4370 C   0  0  0  0  0  5  0  0  0  0  0  0
   -4.2890   -2.8390   20.2870 C   0  0  0  0  0  5  0  0  0  0  0  0
   -3.8390   -1.6150   20.5300 C   0  0  0  0  0  5  0  0  0  0  0  0
   -3.8290   -1.6270   20.6330 C   0  0  0  0  0  5  0  0  0  0  0  0
   -4.3520   -0.6860   21.7080 C   0  0  0  0  0  5  0  0  0  0  0  0
   -4.3450   -0.7510   21.6950 C   0  0  0  0  0  5  0  0  0  0  0  0
   -4.2280    1.4780   20.6720 C   0  0  0  0  0  5  0  0  0  0  0  0
   -4.1700    1.4580   20.6710 C   0  0  0  0  0  5  0  0  0  0  0  0
   -6.6670    1.5560   18.0490 C   0  0  0  0  0  7  0  0  0  0  0  0
   -6.6200    1.4830   18.0690 C   0  0  0  0  0  7  0  0  0  0  0  0
   -7.8310    0.8210   15.9670 C   0  0  0  0  0  5  0  0  0  0  0  0
   -7.6510    0.7920   15.9390 C   0  0  0  0  0  5  0  0  0  0  0  0
   -4.9990    2.3510   19.6820 C   0  0  0  0  0  7  0  0  0  0  0  0
   -4.9190    2.3420   19.6670 C   0  0  0  0  0  7  0  0  0  0  0  0
   -4.1840    3.5200   19.1490 C   0  0  0  0  0  7  0  0  0  0  0  0
   -4.1040    3.5260   19.1600 C   0  0  0  0  0  7  0  0  0  0  0  0
   -5.0350    4.2930   18.1450 C   0  0  0  0  0  5  0  0  0  0  0  0
   -4.9710    4.3280   18.1920 C   0  0  0  0  0  5  0  0  0  0  0  0
   -5.0160    6.5340   16.9510 C   0  0  0  0  0  9  0  0  0  0  0  0
   -4.9980    6.4670   16.8990 C   0  0  0  0  0  9  0  0  0  0  0  0
   -5.7180    5.8930   15.6860 C   0  0  0  0  0  3  0  0  0  0  0  0
   -5.6780    5.9010   15.7230 C   0  0  0  0  0  3  0  0  0  0  0  0
   -4.0510    7.7010   16.6210 C   0  0  0  0  0  3  0  0  0  0  0  0
   -4.0330    7.6190   16.5790 C   0  0  0  0  0  3  0  0  0  0  0  0
   -6.0030    7.0950   17.9720 C   0  0  0  0  0  7  0  0  0  0  0  0
   -5.9310    7.0420   17.9050 C   0  0  0  0  0  7  0  0  0  0  0  0
   -6.9850    0.5160   17.0270 C   0  0  0  0  0  7  0  0  0  0  0  0
   -6.9770    0.4100   17.0940 C   0  0  0  0  0  7  0  0  0  0  0  0
   -7.7570    7.6310   19.1620 C   0  0  0  0  0  5  0  0  0  0  0  0
   -7.6300    7.6330   19.0630 C   0  0  0  0  0  5  0  0  0  0  0  0
   -6.6200    8.1960   19.7140 C   0  0  0  0  0  7  0  0  0  0  0  0
   -6.4240    8.1020   19.5570 C   0  0  0  0  0  7  0  0  0  0  0  0
   -6.4860    9.0260   21.0200 C   0  0  0  0  0  9  0  0  0  0  0  0
   -6.2510    8.9070   20.7940 C   0  0  0  0  0  8  0  0  0  0  0  0
   -7.7850    9.5370   21.7380 C   0  0  0  0  0  2  0  0  0  0  0  0
   -7.6840    9.3210   21.0360 C   0  0  0  0  0  3  0  0  0  0  0  0
   -5.7350    8.1420   22.0250 C   0  0  0  0  0  3  0  0  0  0  0  0
   -5.6700    8.0320   21.9110 C   0  0  0  0  0  3  0  0  0  0  0  0
   -5.6200   10.2720   20.7220 C   0  0  0  0  0  3  0  0  0  0  0  0
   -5.3600   10.1300   20.5190 C   0  0  0  0  0  3  0  0  0  0  0  0
   -6.6300   -0.9070   17.4030 C   0  0  0  0  0  5  0  0  0  0  0  0
   -6.3950   -0.7300   17.1860 C   0  0  0  0  0  5  0  0  0  0  0  0
   -6.9480   -1.8990   16.4510 C   0  0  0  0  0  7  0  0  0  0  0  0
   -6.6510   -1.7070   16.2260 C   0  0  0  0  0  7  0  0  0  0  0  0
   -7.6030   -1.5200   15.2630 C   0  0  0  0  0  5  0  0  0  0  0  0
   -7.4790   -1.4160   15.1440 C   0  0  0  0  0  5  0  0  0  0  0  0
   -8.9790    0.0960   13.8380 C   0  0  0  0  0  3  0  0  0  0  0  0
   -8.6580    0.1430   13.7150 C   0  0  0  0  0  3  0  0  0  0  0  0
   -6.6390   -3.3870   16.7050 C   0  0  0  0  0  7  0  0  0  0  0  0
   -6.0270   -3.0780   16.3350 C   0  0  0  0  0  7  0  0  0  0  0  0
   -5.8240   -3.8790   17.8670 C   0  0  0  0  0  5  0  0  0  0  0  0
   -5.6750   -3.6720   17.6700 C   0  0  0  0  0  5  0  0  0  0  0  0
   -5.4400    1.5060   18.5790 N   0  0  0  0  0  5  0  0  0  0  0  0
   -5.3700    1.4720   18.5650 N   0  0  0  0  0  5  0  0  0  0  0  0
   -4.2740    5.4210   17.5990 N   0  0  0  0  0  5  0  0  0  0  0  0
   -4.2420    5.5130   17.6720 N   0  0  0  0  0  5  0  0  0  0  0  0
   -7.3500    6.9670   18.0340 N   0  0  0  0  0  5  0  0  0  0  0  0
   -7.2810    6.9450   17.9480 N   0  0  0  0  0  5  0  0  0  0  0  0
   -5.0820    0.3960   21.0950 O   0  0  0  0  0  5  0  0  0  0  0  0
   -5.0530    0.4110   21.1640 O   0  0  0  0  0  5  0  0  0  0  0  0
   -7.1380   -4.2520   15.9920 O   0  0  0  0  0  3  0  0  0  0  0  0
   -5.8290   -3.7200   15.3160 O   0  0  0  0  0  3  0  0  0  0  0  0
   -7.4950    2.4000   18.3070 O   0  0  0  0  0  3  0  0  0  0  0  0
   -7.4630    2.3130   18.3110 O   0  0  0  0  0  3  0  0  0  0  0  0
   -3.8380    4.4110   20.2390 O   0  0  0  0  0  3  0  0  0  0  0  0
   -3.8080    4.4190   20.2820 O   0  0  0  0  0  3  0  0  0  0  0  0
   -5.4920    7.8270   18.9880 O   0  0  0  0  0  5  0  0  0  0  0  0
   -5.3250    7.7380   18.8830 O   0  0  0  0  0  5  0  0  0  0  0  0
  1  2  1  0
  1 17  1  0
  1 18  1  0
  1 51  1  0
  1 52  1  0
  1 53  1  0
  1 54  1  0
  2 17  1  0
  2 18  1  0
  2 51  1  0
  2 52  1  0
  2 53  1  0
  2 54  1  0
  3  4  1  0
  3  5  1  0
  3  6  1  0
  3 57  1  0
  3 58  1  0
  4  5  1  0
  4  6  1  0
  4 57  1  0
  4 58  1  0
  5  6  1  0
  5  7  1  0
  5  8  1  0
  6  7  1  0
  6  8  1  0
  7  8  1  0
  7  9  1  0
  7 10  1  0
  8  9  1  0
  8 10  1  0
  9 10  1  0
  9 11  1  0
  9 12  1  0
 10 11  1  0
 10 12  1  0
 11 12  1  0
 11 65  1  0
 11 66  1  0
 12 65  1  0
 12 66  1  0
 13 14  1  0
 13 19  1  0
 13 20  1  0
 13 65  1  0
 13 66  1  0
 14 19  1  0
 14 20  1  0
 14 65  1  0
 14 66  1  0
 15 16  1  0
 15 33  1  0
 15 34  1  0
 15 59  1  0
 15 60  1  0
 15 69  1  0
 15 70  1  0
 16 33  1  0
 16 34  1  0
 16 59  1  0
 16 60  1  0
 16 69  1  0
 16 70  1  0
 17 18  1  0
 17 33  1  0
 17 34  1  0
 18 33  1  0
 18 34  1  0
 19 20  1  0
 19 21  1  0
 19 22  1  0
 19 59  1  0
 19 60  1  0
 20 21  1  0
 20 22  1  0
 20 59  1  0
 20 60  1  0
 21 22  1  0
 21 23  1  0
 21 24  1  0
 21 71  1  0
 21 72  1  0
 22 23  1  0
 22 24  1  0
 22 71  1  0
 22 72  1  0
 23 24  1  0
 23 61  1  0
 23 62  1  0
 24 61  1  0
 24 62  1  0
 25 26  1  0
 25 27  1  0
 25 28  1  0
 25 29  1  0
 25 30  1  0
 25 31  1  0
 25 32  1  0
 25 61  1  0
 25 62  1  0
 26 27  1  0
 26 28  1  0
 26 29  1  0
 26 30  1  0
 26 31  1  0
 26 32  1  0
 26 61  1  0
 26 62  1  0
 27 28  1  0
 29 30  1  0
 31 32  1  0
 31 63  1  0
 31 64  1  0
 31 73  1  0
 31 74  1  0
 32 63  1  0
 32 64  1  0
 32 73  1  0
 32 74  1  0
 33 34  1  0
 33 47  1  0
 33 48  1  0
 34 47  1  0
 34 48  1  0
 35 36  1  0
 35 37  1  0
 35 38  1  0
 35 63  1  0
 35 64  1  0
 36 37  1  0
 36 38  1  0
 36 63  1  0
 36 64  1  0
 37 38  1  0
 37 39  1  0
 37 40  1  0
 37 73  1  0
 37 74  1  0
 38 39  1  0
 38 40  1  0
 38 73  1  0
 38 74  1  0
 39 40  1  0
 39 41  1  0
 39 42  1  0
 39 43  1  0
 39 44  1  0
 39 45  1  0
 39 46  1  0
 40 42  1  0
 40 43  1  0
 40 44  1  0
 40 45  1  0
 40 46  1  0
 41 42  1  0
 43 44  1  0
 45 46  1  0
 47 48  1  0
 47 49  1  0
 47 50  1  0
 48 49  1  0
 48 50  1  0
 49 50  1  0
 49 51  1  0
 49 52  1  0
 49 55  1  0
 49 56  1  0
 50 51  1  0
 50 52  1  0
 50 55  1  0
 50 56  1  0
 51 52  1  0
 53 54  1  0
 55 56  1  0
 55 57  1  0
 55 58  1  0
 55 67  1  0
 55 68  1  0
 56 57  1  0
 56 58  1  0
 56 67  1  0
 56 68  1  0
 57 58  1  0
 59 60  1  0
 61 62  1  0
 63 64  1  0
 65 66  1  0
 67 68  1  0
 69 70  1  0
 71 72  1  0
 73 74  1  0
M  END
$$$$
