4h3f_B_10O_503
     RDKit          3D

 33 37  0  0  0  0  0  0  0  0999 V2000
   21.2290   34.8100   55.3690 C   0  0  0  0  0  0  0  0  0  0  0  0
   18.2800   33.6290   52.9380 C   0  0  0  0  0  2  0  0  0  0  0  0
   24.7440   35.6830   54.9650 C   0  0  0  0  0  3  0  0  0  0  0  0
   16.1790   34.0310   54.4200 C   0  0  0  0  0  3  0  0  0  0  0  0
   13.7680   35.4570   56.9260 C   0  0  0  0  0  2  0  0  0  0  0  0
   15.6340   34.7410   55.5170 C   0  0  0  0  0  2  0  0  0  0  0  0
   20.0910   33.3280   59.2630 C   0  0  0  0  0  1  0  0  0  0  0  0
   14.2510   34.7170   55.8040 C   0  0  0  0  0  3  0  0  0  0  0  0
   15.2810   33.2850   53.6180 C   0  0  0  0  0  2  0  0  0  0  0  0
   25.9660   35.2900   55.5920 C   0  0  0  0  0  2  0  0  0  0  0  0
   13.8880   33.2590   53.9030 C   0  0  0  0  0  2  0  0  0  0  0  0
   21.9060   33.5100   55.8440 C   0  0  0  0  0  3  0  0  0  0  0  0
   25.8060   37.4730   53.8610 C   0  0  0  0  0  3  0  0  0  0  0  0
   13.3600   33.9760   54.9990 C   0  0  0  0  0  2  0  0  0  0  0  0
   27.1320   36.0470   55.3150 C   0  0  0  0  0  2  0  0  0  0  0  0
   27.0570   37.1570   54.4350 C   0  0  0  0  0  2  0  0  0  0  0  0
   24.4560   38.8280   52.4590 C   0  0  0  0  0  1  0  0  0  0  0  0
   20.6830   35.2240   57.7770 C   0  0  0  0  0  3  0  0  0  0  0  0
   21.2740   32.9320   57.1270 C   0  0  0  0  0  3  0  0  0  0  0  0
   19.9830   34.4210   54.6070 C   0  0  0  0  0  3  0  0  0  0  0  0
   22.3110   35.4680   54.5130 C   0  0  0  0  0  2  0  0  0  0  0  0
   23.3880   33.8500   56.0190 C   0  0  0  0  0  2  0  0  0  0  0  0
   18.6140   34.4950   55.0760 C   0  0  0  0  0  2  0  0  0  0  0  0
   17.6590   34.0510   54.1330 C   0  0  0  0  0  3  0  0  0  0  0  0
   20.7050   33.8540   58.0110 N   0  0  0  0  0  0  0  0  0  0  0  0
   20.9400   35.7000   56.5140 N   0  0  0  0  0  2  0  0  0  0  0  0
   23.5500   35.0220   55.1630 N   0  0  0  0  0  0  0  0  0  0  0  0
   13.4030   36.0660   57.8390 N   0  0  0  0  0  1  0  0  0  0  0  0
   20.4190   36.0710   58.7650 N   0  0  0  0  0  1  0  0  0  0  0  0
   24.6990   36.7480   54.1300 N   0  0  0  0  0  2  0  0  0  0  0  0
   21.2900   31.7210   57.3130 O   0  0  0  0  0  1  0  0  0  0  0  0
   25.7430   38.5610   53.0050 O   0  0  0  0  0  0  0  0  0  0  0  0
   19.9810   33.7980   53.0270 S   0  0  0  0  0  0  0  0  0  0  0  0
  1 12  1  0
  1 20  1  0
  1 21  1  0
  1 26  1  0
  2 24  1  0
  2 33  1  0
  3 10  1  0
  3 27  1  0
  3 30  1  0
  4  6  1  0
  4  9  1  0
  4 24  1  0
  5  8  1  0
  5 28  1  0
  6  8  1  0
  7 25  1  0
  8 14  1  0
  9 11  1  0
 10 15  1  0
 11 14  1  0
 12 19  1  0
 12 22  1  0
 13 16  1  0
 13 30  1  0
 13 32  1  0
 15 16  1  0
 17 32  1  0
 18 25  1  0
 18 26  1  0
 18 29  1  0
 19 25  1  0
 19 31  1  0
 20 23  1  0
 20 33  1  0
 21 27  1  0
 22 27  1  0
 23 24  1  0
M  END
$$$$
