4h3g_B_10Q_503
     RDKit          3D

 33 37  0  0  0  0  0  0  0  0999 V2000
   21.2500   34.6960   56.5010 C   0  0  0  0  0  0  0  0  0  0  0  0
   18.3700   34.1760   53.7630 C   0  0  0  0  0  2  0  0  0  0  0  0
   24.8850   35.1230   56.3470 C   0  0  0  0  0  3  0  0  0  0  0  0
   16.2290   34.3760   55.2210 C   0  0  0  0  0  3  0  0  0  0  0  0
   25.4700   35.9540   55.3120 C   0  0  0  0  0  3  0  0  0  0  0  0
   13.7740   35.4990   57.8400 C   0  0  0  0  0  2  0  0  0  0  0  0
   26.8130   36.3670   55.4430 C   0  0  0  0  0  2  0  0  0  0  0  0
   15.6760   34.9260   56.4010 C   0  0  0  0  0  2  0  0  0  0  0  0
   19.7900   33.2500   60.3230 C   0  0  0  0  0  1  0  0  0  0  0  0
   14.2800   34.9260   56.6280 C   0  0  0  0  0  3  0  0  0  0  0  0
   15.3320   33.8190   54.2690 C   0  0  0  0  0  2  0  0  0  0  0  0
   21.6990   33.2900   56.9270 C   0  0  0  0  0  3  0  0  0  0  0  0
   26.9440   35.1740   57.5320 C   0  0  0  0  0  2  0  0  0  0  0  0
   13.9300   33.8160   54.4890 C   0  0  0  0  0  2  0  0  0  0  0  0
   27.5650   35.9760   56.5650 C   0  0  0  0  0  2  0  0  0  0  0  0
   13.3910   34.3720   55.6750 C   0  0  0  0  0  2  0  0  0  0  0  0
   24.7780   36.4040   54.1230 C   0  0  0  0  0  2  0  0  0  0  0  0
   20.6000   35.1060   58.8790 C   0  0  0  0  0  3  0  0  0  0  0  0
   20.9170   32.7670   58.1730 C   0  0  0  0  0  3  0  0  0  0  0  0
   20.0280   34.5290   55.6200 C   0  0  0  0  0  3  0  0  0  0  0  0
   22.4250   35.2580   55.7580 C   0  0  0  0  0  2  0  0  0  0  0  0
   23.2250   33.4080   57.1420 C   0  0  0  0  0  2  0  0  0  0  0  0
   18.6470   34.5740   56.0510 C   0  0  0  0  0  2  0  0  0  0  0  0
   17.7180   34.3760   55.0000 C   0  0  0  0  0  3  0  0  0  0  0  0
   20.4630   33.7310   59.0780 N   0  0  0  0  0  0  0  0  0  0  0  0
   21.0220   35.5690   57.6640 N   0  0  0  0  0  2  0  0  0  0  0  0
   23.5800   34.6280   56.3940 N   0  0  0  0  0  0  0  0  0  0  0  0
   13.3910   35.9680   58.8270 N   0  0  0  0  0  1  0  0  0  0  0  0
   20.3120   35.9740   59.8600 N   0  0  0  0  0  1  0  0  0  0  0  0
   25.6570   34.7470   57.4200 N   0  0  0  0  0  2  0  0  0  0  0  0
   24.1800   36.7370   53.1920 N   0  0  0  0  0  1  0  0  0  0  0  0
   20.7200   31.5610   58.3130 O   0  0  0  0  0  1  0  0  0  0  0  0
   20.0720   34.2410   53.9490 S   0  0  0  0  0  0  0  0  0  0  0  0
  1 12  1  0
  1 20  1  0
  1 21  1  0
  1 26  1  0
  2 24  1  0
  2 33  1  0
  3  5  1  0
  3 27  1  0
  3 30  1  0
  4  8  1  0
  4 11  1  0
  4 24  1  0
  5  7  1  0
  5 17  1  0
  6 10  1  0
  6 28  1  0
  7 15  1  0
  8 10  1  0
  9 25  1  0
 10 16  1  0
 11 14  1  0
 12 19  1  0
 12 22  1  0
 13 15  1  0
 13 30  1  0
 14 16  1  0
 17 31  1  0
 18 25  1  0
 18 26  1  0
 18 29  1  0
 19 25  1  0
 19 32  1  0
 20 23  1  0
 20 33  1  0
 21 27  1  0
 22 27  1  0
 23 24  1  0
M  END
$$$$
