4h3g_A_10Q_502
     RDKit          3D

 33 37  0  0  0  0  0  0  0  0999 V2000
   21.9550   10.7170   21.1860 C   0  0  0  0  0  0  0  0  0  0  0  0
   24.8630   11.2790   18.4680 C   0  0  0  0  0  2  0  0  0  0  0  0
   18.3210   10.2980   21.0180 C   0  0  0  0  0  3  0  0  0  0  0  0
   26.9860   11.0580   19.9590 C   0  0  0  0  0  3  0  0  0  0  0  0
   17.7220    9.5050   19.9650 C   0  0  0  0  0  3  0  0  0  0  0  0
   29.4030    9.9630   22.6230 C   0  0  0  0  0  2  0  0  0  0  0  0
   16.3810    9.0950   20.1020 C   0  0  0  0  0  2  0  0  0  0  0  0
   27.5210   10.5180   21.1540 C   0  0  0  0  0  2  0  0  0  0  0  0
   23.3360   12.1520   25.0490 C   0  0  0  0  0  1  0  0  0  0  0  0
   28.9120   10.5210   21.4010 C   0  0  0  0  0  3  0  0  0  0  0  0
   27.8980   11.6070   19.0170 C   0  0  0  0  0  2  0  0  0  0  0  0
   21.4950   12.1180   21.6250 C   0  0  0  0  0  3  0  0  0  0  0  0
   16.2800   10.2220   22.2300 C   0  0  0  0  0  2  0  0  0  0  0  0
   29.2940   11.6100   19.2590 C   0  0  0  0  0  2  0  0  0  0  0  0
   15.6440    9.4550   21.2480 C   0  0  0  0  0  2  0  0  0  0  0  0
   29.8160   11.0670   20.4580 C   0  0  0  0  0  2  0  0  0  0  0  0
   18.4050    9.0940   18.7530 C   0  0  0  0  0  2  0  0  0  0  0  0
   22.5710   10.2970   23.5800 C   0  0  0  0  0  3  0  0  0  0  0  0
   22.2490   12.6340   22.8790 C   0  0  0  0  0  3  0  0  0  0  0  0
   23.1850   10.8980   20.3110 C   0  0  0  0  0  3  0  0  0  0  0  0
   20.7880   10.1640   20.4320 C   0  0  0  0  0  2  0  0  0  0  0  0
   19.9770   11.9990   21.8190 C   0  0  0  0  0  2  0  0  0  0  0  0
   24.5600   10.8480   20.7490 C   0  0  0  0  0  2  0  0  0  0  0  0
   25.4990   11.0590   19.7140 C   0  0  0  0  0  3  0  0  0  0  0  0
   22.6910   11.6700   23.7900 N   0  0  0  0  0  0  0  0  0  0  0  0
   22.1730    9.8350   22.3520 N   0  0  0  0  0  2  0  0  0  0  0  0
   19.6300   10.7890   21.0670 N   0  0  0  0  0  0  0  0  0  0  0  0
   29.8160    9.5150   23.6020 N   0  0  0  0  0  1  0  0  0  0  0  0
   22.8590    9.4320   24.5560 N   0  0  0  0  0  1  0  0  0  0  0  0
   17.5670   10.6430   22.1120 N   0  0  0  0  0  2  0  0  0  0  0  0
   19.0030    8.7910   17.8020 N   0  0  0  0  0  1  0  0  0  0  0  0
   22.4380   13.8400   23.0230 O   0  0  0  0  0  1  0  0  0  0  0  0
   23.1580   11.2120   18.6280 S   0  0  0  0  0  0  0  0  0  0  0  0
  1 12  1  0
  1 20  1  0
  1 21  1  0
  1 26  1  0
  2 24  1  0
  2 33  1  0
  3  5  1  0
  3 27  1  0
  3 30  1  0
  4  8  1  0
  4 11  1  0
  4 24  1  0
  5  7  1  0
  5 17  1  0
  6 10  1  0
  6 28  1  0
  7 15  1  0
  8 10  1  0
  9 25  1  0
 10 16  1  0
 11 14  1  0
 12 19  1  0
 12 22  1  0
 13 15  1  0
 13 30  1  0
 14 16  1  0
 17 31  1  0
 18 25  1  0
 18 26  1  0
 18 29  1  0
 19 25  1  0
 19 32  1  0
 20 23  1  0
 20 33  1  0
 21 27  1  0
 22 27  1  0
 23 24  1  0
M  END
$$$$
