4h3i_B_10V_503
     RDKit          3D

 33 37  0  0  0  0  0  0  0  0999 V2000
   14.7590   34.1540   53.3990 C   0  0  0  0  0  2  0  0  0  0  0  0
   19.2490   33.6940   53.4970 C   0  0  0  0  0  2  0  0  0  0  0  0
   21.8290   34.7650   56.3630 C   0  0  0  0  0  0  0  0  0  0  0  0
   22.4180   33.4530   56.9210 C   0  0  0  0  0  3  0  0  0  0  0  0
   21.6450   32.8610   58.1400 C   0  0  0  0  0  3  0  0  0  0  0  0
   20.8510   35.1260   58.6630 C   0  0  0  0  0  3  0  0  0  0  0  0
   23.0270   35.4860   55.7070 C   0  0  0  0  0  2  0  0  0  0  0  0
   20.1220   33.1510   60.0360 C   0  0  0  0  0  1  0  0  0  0  0  0
   14.2050   35.2400   56.9500 C   0  0  0  0  0  2  0  0  0  0  0  0
   23.8720   33.7780   57.2520 C   0  0  0  0  0  2  0  0  0  0  0  0
   27.7830   36.0180   56.8310 C   0  0  0  0  0  2  0  0  0  0  0  0
   14.0820   34.5500   54.5770 C   0  0  0  0  0  2  0  0  0  0  0  0
   26.5130   35.4810   57.2010 C   0  0  0  0  0  3  0  0  0  0  0  0
   25.4980   35.4210   56.1690 C   0  0  0  0  0  3  0  0  0  0  0  0
   26.9860   36.3740   54.5900 C   0  0  0  0  0  2  0  0  0  0  0  0
   28.0230   36.4660   55.5240 C   0  0  0  0  0  2  0  0  0  0  0  0
   27.1600   35.1810   59.5730 C   0  0  0  0  0  1  0  0  0  0  0  0
   14.8490   34.8350   55.7320 C   0  0  0  0  0  3  0  0  0  0  0  0
   16.2580   34.7250   55.7080 C   0  0  0  0  0  2  0  0  0  0  0  0
   16.9540   34.3320   54.5370 C   0  0  0  0  0  3  0  0  0  0  0  0
   16.1760   34.0480   53.3840 C   0  0  0  0  0  2  0  0  0  0  0  0
   18.4630   34.2190   54.5400 C   0  0  0  0  0  3  0  0  0  0  0  0
   19.2810   34.6360   55.6200 C   0  0  0  0  0  2  0  0  0  0  0  0
   20.7030   34.4300   55.4080 C   0  0  0  0  0  3  0  0  0  0  0  0
   20.8930   33.7570   58.9090 N   0  0  0  0  0  0  0  0  0  0  0  0
   21.3540   35.6170   57.4830 N   0  0  0  0  0  2  0  0  0  0  0  0
   20.3300   35.9730   59.5530 N   0  0  0  0  0  1  0  0  0  0  0  0
   13.7130   35.5690   57.9450 N   0  0  0  0  0  1  0  0  0  0  0  0
   24.2010   34.9190   56.3800 N   0  0  0  0  0  0  0  0  0  0  0  0
   25.7680   35.8680   54.9050 N   0  0  0  0  0  2  0  0  0  0  0  0
   21.7110   31.6620   58.3830 O   0  0  0  0  0  1  0  0  0  0  0  0
   26.2280   35.0170   58.5120 O   0  0  0  0  0  0  0  0  0  0  0  0
   20.9220   33.7310   53.8770 S   0  0  0  0  0  0  0  0  0  0  0  0
  1 12  1  0
  1 21  1  0
  2 22  1  0
  2 33  1  0
  3  4  1  0
  3  7  1  0
  3 24  1  0
  3 26  1  0
  4  5  1  0
  4 10  1  0
  5 25  1  0
  5 31  1  0
  6 25  1  0
  6 26  1  0
  6 27  1  0
  7 29  1  0
  8 25  1  0
  9 18  1  0
  9 28  1  0
 10 29  1  0
 11 13  1  0
 11 16  1  0
 12 18  1  0
 13 14  1  0
 13 32  1  0
 14 29  1  0
 14 30  1  0
 15 16  1  0
 15 30  1  0
 17 32  1  0
 18 19  1  0
 19 20  1  0
 20 21  1  0
 20 22  1  0
 22 23  1  0
 23 24  1  0
 24 33  1  0
M  END
$$$$
