4h3j_B_10W_503
     RDKit          3D

 32 36  0  0  0  0  0  0  0  0999 V2000
   21.6490   33.0690   57.3260 C   0  0  0  0  0  3  0  0  0  0  0  0
   19.2530   34.0160   53.0600 C   0  0  0  0  0  2  0  0  0  0  0  0
   18.2790   34.4140   54.0190 C   0  0  0  0  0  3  0  0  0  0  0  0
   16.8250   34.3040   53.9280 C   0  0  0  0  0  3  0  0  0  0  0  0
   16.0680   34.7610   55.0110 C   0  0  0  0  0  2  0  0  0  0  0  0
   14.6670   34.6470   55.0240 C   0  0  0  0  0  3  0  0  0  0  0  0
   14.0190   34.0430   53.9270 C   0  0  0  0  0  3  0  0  0  0  0  0
   14.7640   33.5570   52.8290 C   0  0  0  0  0  2  0  0  0  0  0  0
   16.1750   33.6820   52.8410 C   0  0  0  0  0  2  0  0  0  0  0  0
   13.9550   35.1550   56.1620 C   0  0  0  0  0  2  0  0  0  0  0  0
   25.5010   35.5690   55.5160 C   0  0  0  0  0  3  0  0  0  0  0  0
   21.0260   35.3370   57.9680 C   0  0  0  0  0  3  0  0  0  0  0  0
   25.8060   36.6110   54.5880 C   0  0  0  0  0  2  0  0  0  0  0  0
   27.1290   37.1070   54.4790 C   0  0  0  0  0  2  0  0  0  0  0  0
   28.1570   36.5770   55.2860 C   0  0  0  0  0  2  0  0  0  0  0  0
   27.8730   35.5510   56.2080 C   0  0  0  0  0  2  0  0  0  0  0  0
   26.5620   35.0490   56.3210 C   0  0  0  0  0  2  0  0  0  0  0  0
   20.2440   33.3650   59.2840 C   0  0  0  0  0  1  0  0  0  0  0  0
   22.4320   33.6780   56.1370 C   0  0  0  0  0  3  0  0  0  0  0  0
   21.8710   35.0560   55.6350 C   0  0  0  0  0  0  0  0  0  0  0  0
   23.0650   35.6480   54.9060 C   0  0  0  0  0  2  0  0  0  0  0  0
   23.8720   33.9450   56.5020 C   0  0  0  0  0  2  0  0  0  0  0  0
   20.6560   34.7520   54.8400 C   0  0  0  0  0  3  0  0  0  0  0  0
   20.5710   34.2080   53.5000 C   0  0  0  0  0  2  0  0  0  0  0  0
   12.7000   33.9110   53.8880 F   0  0  0  0  0  0  0  0  0  0  0  0
   20.9970   33.9690   58.1560 N   0  0  0  0  0  0  0  0  0  0  0  0
   21.5480   35.8670   56.8080 N   0  0  0  0  0  2  0  0  0  0  0  0
   20.5500   36.1450   58.8870 N   0  0  0  0  0  1  0  0  0  0  0  0
   24.2050   35.0740   55.6320 N   0  0  0  0  0  0  0  0  0  0  0  0
   13.4050   35.5730   57.0910 N   0  0  0  0  0  1  0  0  0  0  0  0
   21.6320   31.8560   57.5020 O   0  0  0  0  0  1  0  0  0  0  0  0
   19.0800   34.9900   55.4070 S   0  0  0  0  0  0  0  0  0  0  0  0
  1 19  1  0
  1 26  1  0
  1 31  1  0
  2  3  1  0
  2 24  1  0
  3  4  1  0
  3 32  1  0
  4  5  1  0
  4  9  1  0
  5  6  1  0
  6  7  1  0
  6 10  1  0
  7  8  1  0
  7 25  1  0
  8  9  1  0
 10 30  1  0
 11 13  1  0
 11 17  1  0
 11 29  1  0
 12 26  1  0
 12 27  1  0
 12 28  1  0
 13 14  1  0
 14 15  1  0
 15 16  1  0
 16 17  1  0
 18 26  1  0
 19 20  1  0
 19 22  1  0
 20 21  1  0
 20 23  1  0
 20 27  1  0
 21 29  1  0
 22 29  1  0
 23 24  1  0
 23 32  1  0
M  END
$$$$
