4ha5_B_13W_503
     RDKit          3D

 23 25  0  0  0  0  0  0  0  0999 V2000
   15.0210   33.7920   53.0510 C   0  0  0  0  0  2  0  0  0  0  0  0
   19.4880   33.5810   53.2340 C   0  0  0  0  0  2  0  0  0  0  0  0
   21.9640   34.9460   56.0290 C   0  0  0  0  0  0  0  0  0  0  0  0
   22.6510   33.6890   56.6160 C   0  0  0  0  0  2  0  0  0  0  0  0
   21.8530   33.0460   57.7820 C   0  0  0  0  0  3  0  0  0  0  0  0
   20.9480   35.2720   58.3060 C   0  0  0  0  0  3  0  0  0  0  0  0
   22.9750   35.7920   55.2180 C   0  0  0  0  0  1  0  0  0  0  0  0
   20.2350   33.2390   59.6050 C   0  0  0  0  0  1  0  0  0  0  0  0
   14.3510   35.3080   56.4290 C   0  0  0  0  0  2  0  0  0  0  0  0
   14.3130   34.3110   54.1640 C   0  0  0  0  0  2  0  0  0  0  0  0
   15.0400   34.7760   55.2850 C   0  0  0  0  0  3  0  0  0  0  0  0
   16.4510   34.7260   55.2990 C   0  0  0  0  0  2  0  0  0  0  0  0
   17.1870   34.2090   54.1900 C   0  0  0  0  0  3  0  0  0  0  0  0
   16.4400   33.7400   53.0610 C   0  0  0  0  0  2  0  0  0  0  0  0
   18.6760   34.1580   54.2270 C   0  0  0  0  0  3  0  0  0  0  0  0
   19.4450   34.6880   55.2930 C   0  0  0  0  0  2  0  0  0  0  0  0
   20.8230   34.5090   55.0970 C   0  0  0  0  0  3  0  0  0  0  0  0
   21.0320   33.9000   58.5310 N   0  0  0  0  0  0  0  0  0  0  0  0
   21.4350   35.7900   57.1290 N   0  0  0  0  0  2  0  0  0  0  0  0
   20.4050   36.1020   59.2070 N   0  0  0  0  0  1  0  0  0  0  0  0
   13.8180   35.7430   57.3670 N   0  0  0  0  0  1  0  0  0  0  0  0
   21.9570   31.8420   58.0030 O   0  0  0  0  0  1  0  0  0  0  0  0
   21.1290   33.7060   53.6350 S   0  0  0  0  0  0  0  0  0  0  0  0
  1 10  1  0
  1 14  1  0
  2 15  1  0
  2 23  1  0
  3  4  1  0
  3  7  1  0
  3 17  1  0
  3 19  1  0
  4  5  1  0
  5 18  1  0
  5 22  1  0
  6 18  1  0
  6 19  1  0
  6 20  1  0
  8 18  1  0
  9 11  1  0
  9 21  1  0
 10 11  1  0
 11 12  1  0
 12 13  1  0
 13 14  1  0
 13 15  1  0
 15 16  1  0
 16 17  1  0
 17 23  1  0
M  END
$$$$
