4i0h_A_1BL_501
     RDKit          3D

 40 42  0  0  0  0  0  0  0  0999 V2000
  -44.6680   10.0980   31.4480 C   0  0  0  0  0  3  0  0  0  0  0  0
  -45.0840    6.3970   34.2270 C   0  0  0  0  0  3  0  0  0  0  0  0
  -45.5350    4.9450   34.4810 C   0  0  0  0  0  3  0  0  0  0  0  0
  -44.5290    4.1520   35.2530 C   0  0  0  0  0  2  0  0  0  0  0  0
  -44.2050    2.0940   36.6780 C   0  0  0  0  0  0  0  0  0  0  0  0
  -42.6830    6.6520   33.7180 C   0  0  0  0  0  3  0  0  0  0  0  0
  -41.5520    6.5710   32.7120 C   0  0  0  0  0  2  0  0  0  0  0  0
  -41.5140    7.8540   31.8380 C   0  0  0  0  0  2  0  0  0  0  0  0
  -45.3490    8.9350   31.8180 C   0  0  0  0  0  2  0  0  0  0  0  0
  -40.2800    7.9940   30.9260 C   0  0  0  0  0  3  0  0  0  0  0  0
  -40.3610    6.9360   29.8550 C   0  0  0  0  0  3  0  0  0  0  0  0
  -44.7990    0.7220   37.0990 C   0  0  0  0  0  2  0  0  0  0  0  0
  -43.7930   -0.1920   37.8700 C   0  0  0  0  0  2  0  0  0  0  0  0
  -42.5190   -0.4370   36.9960 C   0  0  0  0  0  2  0  0  0  0  0  0
  -41.8520    0.8690   36.6540 C   0  0  0  0  0  2  0  0  0  0  0  0
  -42.7960    1.8940   36.0230 C   0  0  0  0  0  2  0  0  0  0  0  0
  -45.4910    8.5910   33.1700 C   0  0  0  0  0  3  0  0  0  0  0  0
  -44.1870    2.8950   37.9690 C   0  0  0  0  0  3  0  0  0  0  0  0
  -42.9940    3.3980   38.5410 C   0  0  0  0  0  2  0  0  0  0  0  0
  -43.0310    4.1300   39.7360 C   0  0  0  0  0  2  0  0  0  0  0  0
  -44.2640    4.3700   40.3670 C   0  0  0  0  0  2  0  0  0  0  0  0
  -45.4440    3.8610   39.8390 C   0  0  0  0  0  3  0  0  0  0  0  0
  -45.4000    3.1430   38.6420 C   0  0  0  0  0  2  0  0  0  0  0  0
  -46.7350    4.1360   40.5920 C   0  0  0  0  0  0  0  0  0  0  0  0
  -46.3840    4.4950   42.0530 C   0  0  0  0  0  1  0  0  0  0  0  0
  -47.7110    2.9810   40.7180 C   0  0  0  0  0  1  0  0  0  0  0  0
  -47.4910    5.2160   39.8250 C   0  0  0  0  0  1  0  0  0  0  0  0
  -44.9420    9.4320   34.1390 C   0  0  0  0  0  2  0  0  0  0  0  0
  -44.2570   10.5970   33.7430 C   0  0  0  0  0  3  0  0  0  0  0  0
  -44.1200   10.9460   32.3990 C   0  0  0  0  0  2  0  0  0  0  0  0
  -46.1620    7.2740   33.5600 C   0  0  0  0  0  2  0  0  0  0  0  0
  -44.5260   10.4340   30.1840 F   0  0  0  0  0  0  0  0  0  0  0  0
  -43.7500   11.4370   34.6310 F   0  0  0  0  0  0  0  0  0  0  0  0
  -45.0360    2.8590   35.6910 N   0  0  0  0  0  2  0  0  0  0  0  0
  -43.9270    6.3560   33.3250 N   0  0  0  0  0  2  0  0  0  0  0  0
  -39.8010    5.8560   30.0370 O   0  0  0  0  0  1  0  0  0  0  0  0
  -41.0160    7.1320   28.8390 O   0  0  0  0  0  1  0  0  0  0  0  0
  -42.4180    6.9890   34.8660 O   0  0  0  0  0  1  0  0  0  0  0  0
  -46.5870    5.0200   35.4160 O   0  0  0  0  0  1  0  0  0  0  0  0
  -39.0870    7.7190   31.6770 O   0  0  0  0  0  1  0  0  0  0  0  0
  1  9  1  0
  1 30  1  0
  1 32  1  0
  2  3  1  0
  2 31  1  0
  2 35  1  0
  3  4  1  0
  3 39  1  0
  4 34  1  0
  5 12  1  0
  5 16  1  0
  5 18  1  0
  5 34  1  0
  6  7  1  0
  6 35  1  0
  6 38  1  0
  7  8  1  0
  8 10  1  0
  9 17  1  0
 10 11  1  0
 10 40  1  0
 11 36  1  0
 11 37  1  0
 12 13  1  0
 13 14  1  0
 14 15  1  0
 15 16  1  0
 17 28  1  0
 17 31  1  0
 18 19  1  0
 18 23  1  0
 19 20  1  0
 20 21  1  0
 21 22  1  0
 22 23  1  0
 22 24  1  0
 24 25  1  0
 24 26  1  0
 24 27  1  0
 28 29  1  0
 29 30  1  0
 29 33  1  0
M  END
$$$$
