4i0h_B_1BL_501
     RDKit          3D

 40 42  0  0  0  0  0  0  0  0999 V2000
  -80.4440  -47.1190   31.8360 C   0  0  0  0  0  3  0  0  0  0  0  0
  -79.7200  -43.6950   28.5890 C   0  0  0  0  0  3  0  0  0  0  0  0
  -78.9600  -42.4290   28.1260 C   0  0  0  0  0  3  0  0  0  0  0  0
  -78.5810  -42.3720   26.6630 C   0  0  0  0  0  2  0  0  0  0  0  0
  -78.1790  -40.8820   24.7410 C   0  0  0  0  0  0  0  0  0  0  0  0
  -79.1630  -45.7670   27.5170 C   0  0  0  0  0  3  0  0  0  0  0  0
  -78.3060  -47.0060   27.3040 C   0  0  0  0  0  2  0  0  0  0  0  0
  -78.4610  -47.9280   28.4930 C   0  0  0  0  0  2  0  0  0  0  0  0
  -79.9520  -45.8660   31.4790 C   0  0  0  0  0  2  0  0  0  0  0  0
  -77.6790  -49.2450   28.3040 C   0  0  0  0  0  3  0  0  0  0  0  0
  -76.1860  -49.0210   28.3750 C   0  0  0  0  0  3  0  0  0  0  0  0
  -77.5290  -39.6020   24.3410 C   0  0  0  0  0  2  0  0  0  0  0  0
  -77.5220  -39.5000   22.8220 C   0  0  0  0  0  2  0  0  0  0  0  0
  -76.6670  -40.6690   22.1940 C   0  0  0  0  0  2  0  0  0  0  0  0
  -77.1080  -42.0260   22.6830 C   0  0  0  0  0  2  0  0  0  0  0  0
  -77.2550  -41.9640   24.2160 C   0  0  0  0  0  2  0  0  0  0  0  0
  -80.6240  -45.1010   30.5140 C   0  0  0  0  0  3  0  0  0  0  0  0
  -79.6080  -40.9090   24.1910 C   0  0  0  0  0  3  0  0  0  0  0  0
  -80.1100  -41.9280   23.3630 C   0  0  0  0  0  2  0  0  0  0  0  0
  -81.4610  -41.8780   22.9370 C   0  0  0  0  0  2  0  0  0  0  0  0
  -82.3060  -40.8310   23.3330 C   0  0  0  0  0  2  0  0  0  0  0  0
  -81.8130  -39.7910   24.1480 C   0  0  0  0  0  3  0  0  0  0  0  0
  -80.4970  -39.8720   24.5900 C   0  0  0  0  0  2  0  0  0  0  0  0
  -82.7070  -38.6290   24.6350 C   0  0  0  0  0  0  0  0  0  0  0  0
  -83.9870  -38.5070   23.8000 C   0  0  0  0  0  1  0  0  0  0  0  0
  -82.0160  -37.2630   24.7020 C   0  0  0  0  0  1  0  0  0  0  0  0
  -83.1110  -38.9750   26.0470 C   0  0  0  0  0  1  0  0  0  0  0  0
  -81.7970  -45.6220   29.9400 C   0  0  0  0  0  2  0  0  0  0  0  0
  -82.3040  -46.8780   30.2850 C   0  0  0  0  0  3  0  0  0  0  0  0
  -81.6200  -47.6230   31.2560 C   0  0  0  0  0  2  0  0  0  0  0  0
  -80.0510  -43.7340   30.0910 C   0  0  0  0  0  2  0  0  0  0  0  0
  -79.7820  -47.8460   32.7570 F   0  0  0  0  0  0  0  0  0  0  0  0
  -83.4590  -47.3620   29.6980 F   0  0  0  0  0  0  0  0  0  0  0  0
  -78.2710  -40.9880   26.1920 N   0  0  0  0  0  2  0  0  0  0  0  0
  -78.8320  -44.8430   28.4350 N   0  0  0  0  0  2  0  0  0  0  0  0
  -75.5160  -49.0010   27.2990 O   0  0  0  0  0  1  0  0  0  0  0  0
  -75.6850  -48.8940   29.5140 O   0  0  0  0  0  1  0  0  0  0  0  0
  -80.1560  -45.6150   26.8000 O   0  0  0  0  0  1  0  0  0  0  0  0
  -79.8280  -41.3250   28.3580 O   0  0  0  0  0  1  0  0  0  0  0  0
  -77.9440  -49.8320   27.0240 O   0  0  0  0  0  1  0  0  0  0  0  0
  1  9  1  0
  1 30  1  0
  1 32  1  0
  2  3  1  0
  2 31  1  0
  2 35  1  0
  3  4  1  0
  3 39  1  0
  4 34  1  0
  5 12  1  0
  5 16  1  0
  5 18  1  0
  5 34  1  0
  6  7  1  0
  6 35  1  0
  6 38  1  0
  7  8  1  0
  8 10  1  0
  9 17  1  0
 10 11  1  0
 10 40  1  0
 11 36  1  0
 11 37  1  0
 12 13  1  0
 13 14  1  0
 14 15  1  0
 15 16  1  0
 17 28  1  0
 17 31  1  0
 18 19  1  0
 18 23  1  0
 19 20  1  0
 20 21  1  0
 21 22  1  0
 22 23  1  0
 22 24  1  0
 24 25  1  0
 24 26  1  0
 24 27  1  0
 28 29  1  0
 29 30  1  0
 29 33  1  0
M  END
$$$$
