4i0i_B_957_501
     RDKit          3D

 31 33  0  0  0  0  0  0  0  0999 V2000
  -36.3450  -19.9360   27.9350 C   0  0  0  0  0  1  0  0  0  0  0  0
  -38.7200  -13.0560   25.6760 C   0  0  0  0  0  2  0  0  0  0  0  0
  -39.9710  -13.2270   24.9790 C   0  0  0  0  0  3  0  0  0  0  0  0
  -39.9390  -14.0750   23.8460 C   0  0  0  0  0  2  0  0  0  0  0  0
  -41.2880  -12.6130   25.3760 C   0  0  0  0  0  2  0  0  0  0  0  0
  -41.4280  -11.1700   24.9740 C   0  0  0  0  0  0  0  0  0  0  0  0
  -42.7240  -10.6480   25.5800 C   0  0  0  0  0  1  0  0  0  0  0  0
  -41.4710  -10.9930   23.4550 C   0  0  0  0  0  1  0  0  0  0  0  0
  -40.2480  -10.4220   25.5430 C   0  0  0  0  0  1  0  0  0  0  0  0
  -37.0750  -18.6340   28.0670 C   0  0  0  0  0  3  0  0  0  0  0  0
  -37.8640  -16.4720   30.8640 C   0  0  0  0  0  2  0  0  0  0  0  0
  -38.4390  -17.8290   31.2330 C   0  0  0  0  0  3  0  0  0  0  0  0
  -37.8430  -18.6370   32.2270 C   0  0  0  0  0  2  0  0  0  0  0  0
  -38.4050  -19.8890   32.5370 C   0  0  0  0  0  3  0  0  0  0  0  0
  -39.5060  -20.3490   31.8340 C   0  0  0  0  0  2  0  0  0  0  0  0
  -40.0950  -19.5660   30.8570 C   0  0  0  0  0  3  0  0  0  0  0  0
  -39.5800  -18.3020   30.5650 C   0  0  0  0  0  2  0  0  0  0  0  0
  -35.3230  -14.5500   24.4810 C   0  0  0  0  0  2  0  0  0  0  0  0
  -35.3160  -13.0200   24.6090 C   0  0  0  0  0  2  0  0  0  0  0  0
  -37.5310  -16.5730   29.3700 C   0  0  0  0  0  3  0  0  0  0  0  0
  -36.8470  -15.3070   28.8580 C   0  0  0  0  0  3  0  0  0  0  0  0
  -36.4390  -15.3820   27.3840 C   0  0  0  0  0  2  0  0  0  0  0  0
  -36.2920  -13.8750   25.4500 C   0  0  0  0  0  0  0  0  0  0  0  0
  -37.7280  -13.8120   25.0390 C   0  0  0  0  0  3  0  0  0  0  0  0
  -37.8070  -20.8070   33.5460 F   0  0  0  0  0  0  0  0  0  0  0  0
  -41.2920  -20.0970   30.1410 F   0  0  0  0  0  0  0  0  0  0  0  0
  -36.7620  -17.7870   29.0910 N   0  0  0  0  0  2  0  0  0  0  0  0
  -36.0170  -14.0670   26.8450 N   0  0  0  0  0  2  0  0  0  0  0  0
  -37.9220  -18.3590   27.2270 O   0  0  0  0  0  1  0  0  0  0  0  0
  -37.6950  -14.1630   29.0940 O   0  0  0  0  0  1  0  0  0  0  0  0
  -38.3340  -14.6610   23.6680 S   0  0  0  0  0  0  0  0  0  0  0  0
  1 10  1  0
  2  3  1  0
  2 24  1  0
  3  4  1  0
  3  5  1  0
  4 31  1  0
  5  6  1  0
  6  7  1  0
  6  8  1  0
  6  9  1  0
 10 27  1  0
 10 29  1  0
 11 12  1  0
 11 20  1  0
 12 13  1  0
 12 17  1  0
 13 14  1  0
 14 15  1  0
 14 25  1  0
 15 16  1  0
 16 17  1  0
 16 26  1  0
 18 19  1  0
 18 23  1  0
 19 23  1  0
 20 21  1  0
 20 27  1  0
 21 22  1  0
 21 30  1  0
 22 28  1  0
 23 24  1  0
 23 28  1  0
 24 31  1  0
M  END
$$$$
