4i0i_C_957_501
     RDKit          3D

 31 33  0  0  0  0  0  0  0  0999 V2000
   19.7690  -12.0620   -1.2820 C   0  0  0  0  0  1  0  0  0  0  0  0
   14.6060  -17.5280   -1.0600 C   0  0  0  0  0  2  0  0  0  0  0  0
   14.4230  -18.1050   -2.3050 C   0  0  0  0  0  3  0  0  0  0  0  0
   14.1080  -17.1790   -3.3140 C   0  0  0  0  0  2  0  0  0  0  0  0
   14.6420  -19.6130   -2.5720 C   0  0  0  0  0  2  0  0  0  0  0  0
   13.4180  -20.4660   -2.3530 C   0  0  0  0  0  0  0  0  0  0  0  0
   12.3140  -19.9200   -3.2170 C   0  0  0  0  0  1  0  0  0  0  0  0
   13.0950  -20.3570   -0.8770 C   0  0  0  0  0  1  0  0  0  0  0  0
   13.5950  -21.9560   -2.7330 C   0  0  0  0  0  1  0  0  0  0  0  0
   19.4360  -13.5430   -1.3380 C   0  0  0  0  0  3  0  0  0  0  0  0
   20.5320  -16.2920    0.5730 C   0  0  0  0  0  2  0  0  0  0  0  0
   21.7440  -15.9620   -0.2780 C   0  0  0  0  0  3  0  0  0  0  0  0
   22.9210  -15.4200    0.2760 C   0  0  0  0  0  2  0  0  0  0  0  0
   24.0100  -15.1370   -0.5790 C   0  0  0  0  0  3  0  0  0  0  0  0
   23.9700  -15.3900   -1.9470 C   0  0  0  0  0  2  0  0  0  0  0  0
   22.8070  -15.9410   -2.4810 C   0  0  0  0  0  3  0  0  0  0  0  0
   21.6910  -16.2360   -1.6450 C   0  0  0  0  0  2  0  0  0  0  0  0
   14.0950  -13.8630   -0.1580 C   0  0  0  0  0  2  0  0  0  0  0  0
   13.0990  -14.7800    0.6190 C   0  0  0  0  0  2  0  0  0  0  0  0
   19.2850  -15.6670   -0.0680 C   0  0  0  0  0  3  0  0  0  0  0  0
   18.0480  -15.8770    0.8130 C   0  0  0  0  0  3  0  0  0  0  0  0
   16.8470  -15.0970    0.3100 C   0  0  0  0  0  2  0  0  0  0  0  0
   14.4550  -15.3260    0.1610 C   0  0  0  0  0  0  0  0  0  0  0  0
   14.4190  -16.1770   -1.0860 C   0  0  0  0  0  3  0  0  0  0  0  0
   25.2350  -14.4870   -0.0740 F   0  0  0  0  0  0  0  0  0  0  0  0
   22.7740  -16.2080   -3.9450 F   0  0  0  0  0  0  0  0  0  0  0  0
   19.5710  -14.2470   -0.1980 N   0  0  0  0  0  2  0  0  0  0  0  0
   15.6040  -15.4140    1.0490 N   0  0  0  0  0  2  0  0  0  0  0  0
   19.0670  -14.0890   -2.3760 O   0  0  0  0  0  1  0  0  0  0  0  0
   17.7210  -17.2570    0.9320 O   0  0  0  0  0  1  0  0  0  0  0  0
   14.0390  -15.5660   -2.6300 S   0  0  0  0  0  0  0  0  0  0  0  0
  1 10  1  0
  2  3  1  0
  2 24  1  0
  3  4  1  0
  3  5  1  0
  4 31  1  0
  5  6  1  0
  6  7  1  0
  6  8  1  0
  6  9  1  0
 10 27  1  0
 10 29  1  0
 11 12  1  0
 11 20  1  0
 12 13  1  0
 12 17  1  0
 13 14  1  0
 14 15  1  0
 14 25  1  0
 15 16  1  0
 16 17  1  0
 16 26  1  0
 18 19  1  0
 18 23  1  0
 19 23  1  0
 20 21  1  0
 20 27  1  0
 21 22  1  0
 21 30  1  0
 22 28  1  0
 23 24  1  0
 23 28  1  0
 24 31  1  0
M  END
$$$$
