4i0j_A_842_505
     RDKit          3D

 35 38  0  0  0  0  0  0  0  0999 V2000
   25.2290   18.6050    6.7060 C   0  0  0  0  0  1  0  0  0  0  0  0
   16.3880   17.8510    6.4660 C   0  0  0  0  0  2  0  0  0  0  0  0
   16.8110   19.1630    5.7890 C   0  0  0  0  0  2  0  0  0  0  0  0
   18.2950   19.2130    5.4050 C   0  0  0  0  0  2  0  0  0  0  0  0
   19.2860   18.5080    6.3480 C   0  0  0  0  0  2  0  0  0  0  0  0
   18.9440   15.9730    6.1390 C   0  0  0  0  0  3  0  0  0  0  0  0
   18.5630   14.7270    6.6940 C   0  0  0  0  0  2  0  0  0  0  0  0
   18.5800   13.5040    6.0100 C   0  0  0  0  0  3  0  0  0  0  0  0
   19.0010   13.5880    4.6580 C   0  0  0  0  0  2  0  0  0  0  0  0
   19.3840   14.8030    4.0510 C   0  0  0  0  0  2  0  0  0  0  0  0
   19.3670   15.9920    4.7930 C   0  0  0  0  0  2  0  0  0  0  0  0
   24.5540   17.2840    6.9930 C   0  0  0  0  0  3  0  0  0  0  0  0
   16.8110   11.1470    7.8410 C   0  0  0  0  0  2  0  0  0  0  0  0
   17.9170   10.4020    7.4130 C   0  0  0  0  0  2  0  0  0  0  0  0
   18.7670   11.2110    6.6420 C   0  0  0  0  0  2  0  0  0  0  0  0
   24.1940   15.1970    9.8640 C   0  0  0  0  0  2  0  0  0  0  0  0
   25.6110   14.9800    9.3460 C   0  0  0  0  0  3  0  0  0  0  0  0
   26.6710   15.7210    9.8890 C   0  0  0  0  0  2  0  0  0  0  0  0
   27.9950   15.5810    9.4130 C   0  0  0  0  0  3  0  0  0  0  0  0
   28.2690   14.7000    8.3640 C   0  0  0  0  0  2  0  0  0  0  0  0
   27.1900   13.9870    7.8170 C   0  0  0  0  0  3  0  0  0  0  0  0
   25.8620   14.1220    8.2720 C   0  0  0  0  0  2  0  0  0  0  0  0
   23.3980   15.9100    8.7500 C   0  0  0  0  0  3  0  0  0  0  0  0
   21.9560   16.2580    9.1590 C   0  0  0  0  0  3  0  0  0  0  0  0
   21.2530   16.8320    7.9380 C   0  0  0  0  0  2  0  0  0  0  0  0
   18.8550   17.2070    7.0280 C   0  0  0  0  0  0  0  0  0  0  0  0
   17.3940   17.3890    7.5290 C   0  0  0  0  0  2  0  0  0  0  0  0
   28.9760   16.2920    9.9900 F   0  0  0  0  0  0  0  0  0  0  0  0
   27.4020   13.1790    6.7830 F   0  0  0  0  0  0  0  0  0  0  0  0
   18.1610   12.3920    6.6260 N   0  0  0  0  0  0  0  0  0  0  0  0
   16.9700   12.4070    7.3870 N   0  0  0  0  0  2  0  0  0  0  0  0
   24.1110   17.1000    8.2630 N   0  0  0  0  0  2  0  0  0  0  0  0
   19.7890   16.9450    8.1410 N   0  0  0  0  0  2  0  0  0  0  0  0
   24.3990   16.4360    6.1300 O   0  0  0  0  0  1  0  0  0  0  0  0
   21.2580   15.0520    9.5750 O   0  0  0  0  0  1  0  0  0  0  0  0
  1 12  1  0
  2  3  1  0
  2 27  1  0
  3  4  1  0
  4  5  1  0
  5 26  1  0
  6  7  1  0
  6 11  1  0
  6 26  1  0
  7  8  1  0
  8  9  1  0
  8 30  1  0
  9 10  1  0
 10 11  1  0
 12 32  1  0
 12 34  1  0
 13 14  1  0
 13 31  1  0
 14 15  1  0
 15 30  1  0
 16 17  1  0
 16 23  1  0
 17 18  1  0
 17 22  1  0
 18 19  1  0
 19 20  1  0
 19 28  1  0
 20 21  1  0
 21 22  1  0
 21 29  1  0
 23 24  1  0
 23 32  1  0
 24 25  1  0
 24 35  1  0
 25 33  1  0
 26 27  1  0
 26 33  1  0
 30 31  1  0
M  END
$$$$
