4i11_A_1CH_504
     RDKit          3D

 24 26  0  0  0  0  0  0  0  0999 V2000
   10.8420  -13.2200    6.3690 C   0  0  0  0  0  2  0  0  0  0  0  0
   10.8020  -16.7090    8.0040 C   0  0  0  0  0  3  0  0  0  0  0  0
   12.6380  -14.9880   10.6630 C   0  0  0  0  0  1  0  0  0  0  0  0
   10.3000  -14.3980   10.0430 C   0  0  0  0  0  1  0  0  0  0  0  0
   10.7090  -19.1670    8.4250 C   0  0  0  0  0  3  0  0  0  0  0  0
   11.4320  -20.1590    7.5660 C   0  0  0  0  0  3  0  0  0  0  0  0
    9.3610  -19.6940    8.9380 C   0  0  0  0  0  2  0  0  0  0  0  0
    8.9190  -18.7200   10.0370 C   0  0  0  0  0  3  0  0  0  0  0  0
   11.1250  -14.2810    7.2370 C   0  0  0  0  0  3  0  0  0  0  0  0
    9.5750  -18.7170   11.2720 C   0  0  0  0  0  2  0  0  0  0  0  0
    9.2030  -17.8160   12.2810 C   0  0  0  0  0  2  0  0  0  0  0  0
    8.1500  -16.8960   12.0530 C   0  0  0  0  0  2  0  0  0  0  0  0
    7.4970  -16.8750   10.8160 C   0  0  0  0  0  2  0  0  0  0  0  0
    7.8710  -17.8000    9.8080 C   0  0  0  0  0  2  0  0  0  0  0  0
   10.4430  -15.5840    7.0550 C   0  0  0  0  0  3  0  0  0  0  0  0
    9.5170  -15.7250    6.0010 C   0  0  0  0  0  2  0  0  0  0  0  0
    9.2580  -14.6340    5.1430 C   0  0  0  0  0  2  0  0  0  0  0  0
    9.9070  -13.4040    5.3200 C   0  0  0  0  0  2  0  0  0  0  0  0
   12.1300  -14.1820    8.3740 C   0  0  0  0  0  2  0  0  0  0  0  0
   11.6190  -15.0480    9.5440 C   0  0  0  0  0  0  0  0  0  0  0  0
   10.4870  -17.9640    7.6280 N   0  0  0  0  0  2  0  0  0  0  0  0
   11.3770  -16.4300    9.1270 N   0  0  0  0  0  2  0  0  0  0  0  0
   11.5610  -19.8490    6.3610 O   0  0  0  0  0  1  0  0  0  0  0  0
   11.8020  -21.2750    8.0160 O   0  0  0  0  0  1  0  0  0  0  0  0
  1  9  1  0
  1 18  1  0
  2 15  1  0
  2 21  1  0
  2 22  1  0
  3 20  1  0
  4 20  1  0
  5  6  1  0
  5  7  1  0
  5 21  1  0
  6 23  1  0
  6 24  1  0
  7  8  1  0
  8 10  1  0
  8 14  1  0
  9 15  1  0
  9 19  1  0
 10 11  1  0
 11 12  1  0
 12 13  1  0
 13 14  1  0
 15 16  1  0
 16 17  1  0
 17 18  1  0
 19 20  1  0
 20 22  1  0
M  END
$$$$
