4i12_A_1BC_501
     RDKit          3D

 36 40  0  0  0  0  0  0  0  0999 V2000
   10.2980  -12.6850    5.3870 C   0  0  0  0  0  3  0  0  0  0  0  0
   11.5380  -14.4460    9.3660 C   0  0  0  0  0  0  0  0  0  0  0  0
    8.7080  -17.9920    9.5580 C   0  0  0  0  0  3  0  0  0  0  0  0
   11.0070  -16.0470    7.8810 C   0  0  0  0  0  3  0  0  0  0  0  0
    7.7700  -16.8010    9.4450 C   0  0  0  0  0  3  0  0  0  0  0  0
   10.7420  -18.4690    8.1950 C   0  0  0  0  0  3  0  0  0  0  0  0
    9.2860  -18.8990    8.4760 C   0  0  0  0  0  2  0  0  0  0  0  0
    7.3830  -16.0800   10.5430 C   0  0  0  0  0  2  0  0  0  0  0  0
    9.0280  -18.1320   10.9810 C   0  0  0  0  0  3  0  0  0  0  0  0
    9.8940  -19.1720   11.6710 C   0  0  0  0  0  2  0  0  0  0  0  0
   11.1660  -12.5230    6.4850 C   0  0  0  0  0  2  0  0  0  0  0  0
   10.0040  -19.1470   13.1910 C   0  0  0  0  0  2  0  0  0  0  0  0
   10.6750  -20.4550   13.6360 C   0  0  0  0  0  1  0  0  0  0  0  0
    7.2890  -16.3070    8.1490 C   0  0  0  0  0  3  0  0  0  0  0  0
    7.0330  -14.9680    7.8930 C   0  0  0  0  0  2  0  0  0  0  0  0
   10.5110  -13.8740   10.3470 C   0  0  0  0  0  1  0  0  0  0  0  0
   12.6600  -14.5370   10.4690 C   0  0  0  0  0  1  0  0  0  0  0  0
    7.1060  -17.1290    7.0600 C   0  0  0  0  0  2  0  0  0  0  0  0
   11.4090  -13.6440    7.2660 C   0  0  0  0  0  3  0  0  0  0  0  0
   11.3810  -19.5060    7.2930 C   0  0  0  0  0  3  0  0  0  0  0  0
   11.8500  -21.7740    6.7930 C   0  0  0  0  0  3  0  0  0  0  0  0
   12.4210  -21.4130    5.5590 C   0  0  0  0  0  2  0  0  0  0  0  0
   12.4600  -20.0450    5.2410 C   0  0  0  0  0  2  0  0  0  0  0  0
   10.7580  -14.8680    6.9950 C   0  0  0  0  0  3  0  0  0  0  0  0
    9.8880  -15.0330    5.9210 C   0  0  0  0  0  2  0  0  0  0  0  0
    9.6420  -13.9080    5.1110 C   0  0  0  0  0  2  0  0  0  0  0  0
   12.2820  -13.5050    8.4920 C   0  0  0  0  0  2  0  0  0  0  0  0
    9.9810  -11.2150    4.3850 Cl  0  0  0  0  0  0  0  0  0  0  0  0
   11.5550  -15.8350    8.9990 N   0  0  0  0  0  2  0  0  0  0  0  0
   10.7190  -17.2650    7.4280 N   0  0  0  0  0  2  0  0  0  0  0  0
    6.6640  -14.9400    6.5680 N   0  0  0  0  0  2  0  0  0  0  0  0
    6.7280  -16.2800    6.0800 N   0  0  0  0  0  2  0  0  0  0  0  0
   11.3200  -20.8030    7.6050 N   0  0  0  0  0  2  0  0  0  0  0  0
   11.9160  -19.1420    6.1140 N   0  0  0  0  0  2  0  0  0  0  0  0
   11.7880  -22.9690    7.1580 O   0  0  0  0  0  1  0  0  0  0  0  0
    8.1410  -16.8760   11.8430 S   0  0  0  0  0  0  0  0  0  0  0  0
  1 11  1  0
  1 26  1  0
  1 28  1  0
  2 16  1  0
  2 17  1  0
  2 27  1  0
  2 29  1  0
  3  5  1  0
  3  7  1  0
  3  9  1  0
  4 24  1  0
  4 29  1  0
  4 30  1  0
  5  8  1  0
  5 14  1  0
  6  7  1  0
  6 20  1  0
  6 30  1  0
  8 36  1  0
  9 10  1  0
  9 36  1  0
 10 12  1  0
 11 19  1  0
 12 13  1  0
 14 15  1  0
 14 18  1  0
 15 31  1  0
 18 32  1  0
 19 24  1  0
 19 27  1  0
 20 33  1  0
 20 34  1  0
 21 22  1  0
 21 33  1  0
 21 35  1  0
 22 23  1  0
 23 34  1  0
 24 25  1  0
 25 26  1  0
 31 32  1  0
M  END
$$$$
