4j0t_A_6T9_504
     RDKit          3D

 29 31  0  0  0  0  0  0  0  0999 V2000
  -16.6150  -41.4590   -9.0870 C   0  0  0  0  0  2  0  0  0  0  0  0
  -21.2020  -39.4650   -7.6680 C   0  0  0  0  0  2  0  0  0  0  0  0
  -20.8670  -38.8290   -8.8860 C   0  0  0  0  0  2  0  0  0  0  0  0
  -19.5210  -38.6420   -9.2330 C   0  0  0  0  0  3  0  0  0  0  0  0
  -16.6930  -37.5560   -9.4550 C   0  0  0  0  0  1  0  0  0  0  0  0
  -21.6290  -41.1210   -5.2750 C   0  0  0  0  0  3  0  0  0  0  0  0
  -21.5900  -41.8680   -4.0250 C   0  0  0  0  0  3  0  0  0  0  0  0
  -16.6250  -40.0680   -9.7280 C   0  0  0  0  0  0  0  0  0  0  0  0
  -20.1940  -42.2630   -2.2200 C   0  0  0  0  0  2  0  0  0  0  0  0
  -21.0730  -43.1700   -1.6690 C   0  0  0  0  0  3  0  0  0  0  0  0
  -22.2870  -43.4150   -2.3510 C   0  0  0  0  0  2  0  0  0  0  0  0
  -22.5400  -42.7780   -3.5680 C   0  0  0  0  0  2  0  0  0  0  0  0
  -21.7640  -44.6020    0.0770 C   0  0  0  0  0  2  0  0  0  0  0  0
  -21.3370  -45.2050    1.4040 C   0  0  0  0  0  1  0  0  0  0  0  0
  -15.5480  -40.1750   -7.3170 C   0  0  0  0  0  3  0  0  0  0  0  0
  -17.0010  -38.9040   -8.7830 C   0  0  0  0  0  0  0  0  0  0  0  0
  -18.4600  -39.0900   -8.3880 C   0  0  0  0  0  3  0  0  0  0  0  0
  -18.8150  -39.7750   -7.2150 C   0  0  0  0  0  2  0  0  0  0  0  0
  -20.1670  -39.9590   -6.8630 C   0  0  0  0  0  3  0  0  0  0  0  0
  -19.2110  -37.9520  -10.3810 F   0  0  0  0  0  0  0  0  0  0  0  0
  -15.3750  -39.8450  -10.2740 F   0  0  0  0  0  0  0  0  0  0  0  0
  -17.4620  -40.0710  -10.7890 F   0  0  0  0  0  0  0  0  0  0  0  0
  -14.7270  -40.1970   -6.2310 N   0  0  0  0  0  1  0  0  0  0  0  0
  -20.4050  -40.6740   -5.6830 N   0  0  0  0  0  2  0  0  0  0  0  0
  -20.4700  -41.6810   -3.3480 N   0  0  0  0  0  2  0  0  0  0  0  0
  -16.0940  -39.0240   -7.6640 N   0  0  0  0  0  2  0  0  0  0  0  0
  -22.6050  -40.9680   -5.9950 O   0  0  0  0  0  1  0  0  0  0  0  0
  -20.6990  -43.7770   -0.4650 O   0  0  0  0  0  0  0  0  0  0  0  0
  -15.6300  -41.3270   -8.0360 O   0  0  0  0  0  0  0  0  0  0  0  0
  1  8  1  0
  1 29  1  0
  2  3  1  0
  2 19  1  0
  3  4  1  0
  4 17  1  0
  4 20  1  0
  5 16  1  0
  6  7  1  0
  6 24  1  0
  6 27  1  0
  7 12  1  0
  7 25  1  0
  8 16  1  0
  8 21  1  0
  8 22  1  0
  9 10  1  0
  9 25  1  0
 10 11  1  0
 10 28  1  0
 11 12  1  0
 13 14  1  0
 13 28  1  0
 15 23  1  0
 15 26  1  0
 15 29  1  0
 16 17  1  0
 16 26  1  0
 17 18  1  0
 18 19  1  0
 19 24  1  0
M  END
$$$$
