4j0y_A_1H6_504
     RDKit          3D

 27 29  0  0  0  0  0  0  0  0999 V2000
  -20.0010  -39.7220   -6.9200 C   0  0  0  0  0  3  0  0  0  0  0  0
  -16.5300  -40.0030   -9.9560 C   0  0  0  0  0  3  0  0  0  0  0  0
  -16.2460  -41.2860   -9.1860 C   0  0  0  0  0  2  0  0  0  0  0  0
  -15.2930  -40.0100   -7.4680 C   0  0  0  0  0  3  0  0  0  0  0  0
  -21.3230  -40.9950   -5.2690 C   0  0  0  0  0  3  0  0  0  0  0  0
  -21.2450  -41.6750   -3.9850 C   0  0  0  0  0  3  0  0  0  0  0  0
  -21.0750  -39.3030   -7.7390 C   0  0  0  0  0  2  0  0  0  0  0  0
  -19.9940  -42.0690   -2.0730 C   0  0  0  0  0  2  0  0  0  0  0  0
  -20.9190  -43.0230   -1.6350 C   0  0  0  0  0  3  0  0  0  0  0  0
  -22.0730  -43.3060   -2.4410 C   0  0  0  0  0  2  0  0  0  0  0  0
  -22.1950  -42.6260   -3.6430 C   0  0  0  0  0  2  0  0  0  0  0  0
  -20.7440  -43.6880   -0.3840 C   0  0  0  0  0  2  0  0  0  0  0  0
  -20.7720  -38.6910   -8.9910 C   0  0  0  0  0  2  0  0  0  0  0  0
  -19.4230  -38.5140   -9.3960 C   0  0  0  0  0  3  0  0  0  0  0  0
  -18.3610  -38.9040   -8.5170 C   0  0  0  0  0  3  0  0  0  0  0  0
  -18.6790  -39.5470   -7.3340 C   0  0  0  0  0  2  0  0  0  0  0  0
  -16.8680  -38.8020   -8.9330 C   0  0  0  0  0  0  0  0  0  0  0  0
  -16.5670  -37.4530   -9.5570 C   0  0  0  0  0  1  0  0  0  0  0  0
  -17.5780  -40.2420  -10.6760 F   0  0  0  0  0  0  0  0  0  0  0  0
  -19.1320  -37.9260  -10.6130 F   0  0  0  0  0  0  0  0  0  0  0  0
  -16.0220  -38.9390   -7.7430 N   0  0  0  0  0  2  0  0  0  0  0  0
  -14.6090  -40.0630   -6.2470 N   0  0  0  0  0  1  0  0  0  0  0  0
  -20.2000  -40.3750   -5.6920 N   0  0  0  0  0  2  0  0  0  0  0  0
  -20.1920  -41.4170   -3.2070 N   0  0  0  0  0  2  0  0  0  0  0  0
  -20.6040  -44.2200    0.5950 N   0  0  0  0  0  1  0  0  0  0  0  0
  -15.1530  -41.0350   -8.2950 O   0  0  0  0  0  0  0  0  0  0  0  0
  -22.3860  -40.9230   -5.8630 O   0  0  0  0  0  1  0  0  0  0  0  0
  1  7  1  0
  1 16  1  0
  1 23  1  0
  2  3  1  0
  2 17  1  0
  2 19  1  0
  3 26  1  0
  4 21  1  0
  4 22  1  0
  4 26  1  0
  5  6  1  0
  5 23  1  0
  5 27  1  0
  6 11  1  0
  6 24  1  0
  7 13  1  0
  8  9  1  0
  8 24  1  0
  9 10  1  0
  9 12  1  0
 10 11  1  0
 12 25  1  0
 13 14  1  0
 14 15  1  0
 14 20  1  0
 15 16  1  0
 15 17  1  0
 17 18  1  0
 17 21  1  0
M  END
$$$$
