4j0z_A_1H5_504
     RDKit          3D

 28 30  0  0  0  0  0  0  0  0999 V2000
   19.7610   40.4930   -7.0490 C   0  0  0  0  0  3  0  0  0  0  0  0
   16.2970   40.6260  -10.0440 C   0  0  0  0  0  3  0  0  0  0  0  0
   16.0810   42.0100   -9.4250 C   0  0  0  0  0  2  0  0  0  0  0  0
   15.1000   40.6910   -7.6750 C   0  0  0  0  0  3  0  0  0  0  0  0
   21.0640   41.6530   -5.3590 C   0  0  0  0  0  3  0  0  0  0  0  0
   20.9400   42.2850   -4.0400 C   0  0  0  0  0  3  0  0  0  0  0  0
   20.8010   40.2680   -7.9590 C   0  0  0  0  0  2  0  0  0  0  0  0
   19.5530   42.5760   -2.1760 C   0  0  0  0  0  2  0  0  0  0  0  0
   20.4860   43.5020   -1.6590 C   0  0  0  0  0  3  0  0  0  0  0  0
   21.6970   43.8250   -2.3880 C   0  0  0  0  0  2  0  0  0  0  0  0
   21.9210   43.2040   -3.6040 C   0  0  0  0  0  2  0  0  0  0  0  0
   20.2460   44.1130   -0.3750 C   0  0  0  0  0  2  0  0  0  0  0  0
   20.4760   39.7600   -9.1790 C   0  0  0  0  0  2  0  0  0  0  0  0
   19.1580   39.4950   -9.4890 C   0  0  0  0  0  3  0  0  0  0  0  0
   18.1470   39.7770   -8.5990 C   0  0  0  0  0  3  0  0  0  0  0  0
   18.4540   40.2680   -7.3680 C   0  0  0  0  0  2  0  0  0  0  0  0
   16.7350   39.5410   -8.9930 C   0  0  0  0  0  0  0  0  0  0  0  0
   16.7650   38.1150   -9.4930 C   0  0  0  0  0  2  0  0  0  0  0  0
   15.0370   40.3190  -10.5190 F   0  0  0  0  0  0  0  0  0  0  0  0
   15.4420   37.7840   -9.7610 F   0  0  0  0  0  0  0  0  0  0  0  0
   18.8410   39.0550  -10.7330 F   0  0  0  0  0  0  0  0  0  0  0  0
   15.7640   39.5970   -7.9240 N   0  0  0  0  0  2  0  0  0  0  0  0
   14.1920   40.6860   -6.6620 N   0  0  0  0  0  1  0  0  0  0  0  0
   19.9500   41.0650   -5.8200 N   0  0  0  0  0  2  0  0  0  0  0  0
   19.8070   42.0360   -3.3620 N   0  0  0  0  0  2  0  0  0  0  0  0
   20.0850   44.6090    0.6470 N   0  0  0  0  0  1  0  0  0  0  0  0
   15.2030   41.8740   -8.2930 O   0  0  0  0  0  0  0  0  0  0  0  0
   22.0800   41.6850   -6.0030 O   0  0  0  0  0  1  0  0  0  0  0  0
  1  7  1  0
  1 16  1  0
  1 24  1  0
  2  3  1  0
  2 17  1  0
  2 19  1  0
  3 27  1  0
  4 22  1  0
  4 23  1  0
  4 27  1  0
  5  6  1  0
  5 24  1  0
  5 28  1  0
  6 11  1  0
  6 25  1  0
  7 13  1  0
  8  9  1  0
  8 25  1  0
  9 10  1  0
  9 12  1  0
 10 11  1  0
 12 26  1  0
 13 14  1  0
 14 15  1  0
 14 21  1  0
 15 16  1  0
 15 17  1  0
 17 18  1  0
 17 22  1  0
 18 20  1  0
M  END
$$$$
