4j1h_A_1HJ_504
     RDKit          3D

 30 32  0  0  0  0  0  0  0  0999 V2000
   14.6520   40.9890   -9.7980 C   0  0  0  0  0  3  0  0  0  0  0  0
   20.3620   39.8590   -7.8600 C   0  0  0  0  0  2  0  0  0  0  0  0
   20.0530   39.3160   -9.0860 C   0  0  0  0  0  2  0  0  0  0  0  0
   18.7320   39.1010   -9.4210 C   0  0  0  0  0  3  0  0  0  0  0  0
   15.9510   37.8570   -9.6510 C   0  0  0  0  0  1  0  0  0  0  0  0
   20.7540   41.2730   -5.4000 C   0  0  0  0  0  3  0  0  0  0  0  0
   20.7100   41.9840   -4.1100 C   0  0  0  0  0  3  0  0  0  0  0  0
   16.0300   40.3540   -9.9920 C   0  0  0  0  0  2  0  0  0  0  0  0
   19.5040   42.3960   -2.1690 C   0  0  0  0  0  2  0  0  0  0  0  0
   20.4500   43.3380   -1.7790 C   0  0  0  0  0  3  0  0  0  0  0  0
   21.5950   43.6370   -2.5950 C   0  0  0  0  0  2  0  0  0  0  0  0
   21.7170   42.9250   -3.7960 C   0  0  0  0  0  2  0  0  0  0  0  0
   20.2590   43.9800   -0.5220 C   0  0  0  0  0  2  0  0  0  0  0  0
   14.6270   42.2980  -10.5940 C   0  0  0  0  0  0  0  0  0  0  0  0
   14.6810   40.3910   -7.5620 C   0  0  0  0  0  3  0  0  0  0  0  0
   16.2630   39.2090   -8.9670 C   0  0  0  0  0  0  0  0  0  0  0  0
   17.6800   39.3920   -8.5390 C   0  0  0  0  0  3  0  0  0  0  0  0
   17.9560   39.9510   -7.3190 C   0  0  0  0  0  2  0  0  0  0  0  0
   19.2970   40.1260   -6.9780 C   0  0  0  0  0  3  0  0  0  0  0  0
   18.5000   38.5740  -10.6320 F   0  0  0  0  0  0  0  0  0  0  0  0
   14.7150   41.9730  -11.9380 F   0  0  0  0  0  0  0  0  0  0  0  0
   13.3450   42.8360  -10.4220 F   0  0  0  0  0  0  0  0  0  0  0  0
   15.6820   43.2020  -10.1920 F   0  0  0  0  0  0  0  0  0  0  0  0
   13.9600   40.4610   -6.3950 N   0  0  0  0  0  1  0  0  0  0  0  0
   19.5750   40.7300   -5.7800 N   0  0  0  0  0  2  0  0  0  0  0  0
   19.6590   41.7760   -3.3210 N   0  0  0  0  0  2  0  0  0  0  0  0
   20.0860   44.4790    0.4740 N   0  0  0  0  0  1  0  0  0  0  0  0
   15.4580   39.3830   -7.7730 N   0  0  0  0  0  2  0  0  0  0  0  0
   21.7740   41.2570   -6.0810 O   0  0  0  0  0  1  0  0  0  0  0  0
   14.5460   41.3950   -8.4100 O   0  0  0  0  0  0  0  0  0  0  0  0
  1  8  1  0
  1 14  1  0
  1 30  1  0
  2  3  1  0
  2 19  1  0
  3  4  1  0
  4 17  1  0
  4 20  1  0
  5 16  1  0
  6  7  1  0
  6 25  1  0
  6 29  1  0
  7 12  1  0
  7 26  1  0
  8 16  1  0
  9 10  1  0
  9 26  1  0
 10 11  1  0
 10 13  1  0
 11 12  1  0
 13 27  1  0
 14 21  1  0
 14 22  1  0
 14 23  1  0
 15 24  1  0
 15 28  1  0
 15 30  1  0
 16 17  1  0
 16 28  1  0
 17 18  1  0
 18 19  1  0
 19 25  1  0
M  END
$$$$
