4joo_A_1M4_503
     RDKit          3D

 20 22  0  0  0  0  0  0  0  0999 V2000
   28.0570   16.4980   10.4030 Br  0  0  0  0  0  0  0  0  0  0  0  0
   25.0700   14.0570    8.7330 C   0  0  0  0  0  3  0  0  0  0  0  0
   23.4210   15.4070    7.4710 C   0  0  0  0  0  3  0  0  0  0  0  0
   22.2650   15.8240    9.3570 C   0  0  0  0  0  3  0  0  0  0  0  0
   22.2500   17.6520    7.5800 C   0  0  0  0  0  1  0  0  0  0  0  0
   23.3730   11.2440    9.5880 C   0  0  0  0  0  1  0  0  0  0  0  0
   23.2330   10.4600    7.1940 C   0  0  0  0  0  1  0  0  0  0  0  0
   25.7590   12.8500    8.4570 C   0  0  0  0  0  3  0  0  0  0  0  0
   27.1330   12.7480    8.7560 C   0  0  0  0  0  2  0  0  0  0  0  0
   27.8280   13.8320    9.3390 C   0  0  0  0  0  2  0  0  0  0  0  0
   27.1410   15.0340    9.6220 C   0  0  0  0  0  3  0  0  0  0  0  0
   25.7620   15.1400    9.3190 C   0  0  0  0  0  2  0  0  0  0  0  0
   23.5820   14.1840    8.3890 C   0  0  0  0  0  0  0  0  0  0  0  0
   22.9810   12.9320    7.7120 C   0  0  0  0  0  2  0  0  0  0  0  0
   23.6850   11.6130    8.1110 C   0  0  0  0  0  0  0  0  0  0  0  0
   22.6260   16.3370    8.1220 N   0  0  0  0  0  0  0  0  0  0  0  0
   22.7700   14.5970    9.5480 N   0  0  0  0  0  2  0  0  0  0  0  0
   21.4910   16.4480   10.2550 N   0  0  0  0  0  1  0  0  0  0  0  0
   25.0890   11.7810    7.8950 O   0  0  0  0  0  0  0  0  0  0  0  0
   23.9210   15.5760    6.3590 O   0  0  0  0  0  1  0  0  0  0  0  0
  1 11  1  0
  2  8  1  0
  2 12  1  0
  2 13  1  0
  3 13  1  0
  3 16  1  0
  3 20  1  0
  4 16  1  0
  4 17  1  0
  4 18  1  0
  5 16  1  0
  6 15  1  0
  7 15  1  0
  8  9  1  0
  8 19  1  0
  9 10  1  0
 10 11  1  0
 11 12  1  0
 13 14  1  0
 13 17  1  0
 14 15  1  0
 15 19  1  0
M  END
$$$$
