4jp9_A_1M5_503
     RDKit          3D

 26 29  0  0  0  0  0  0  0  0999 V2000
   27.0420   15.4980    9.4360 C   0  0  0  0  0  3  0  0  0  0  0  0
   23.4960   14.4050    8.3800 C   0  0  0  0  0  0  0  0  0  0  0  0
   27.6960   16.6790    9.8590 C   0  0  0  0  0  3  0  0  0  0  0  0
   23.2920   10.6440    7.3000 C   0  0  0  0  0  1  0  0  0  0  0  0
   23.2920   11.5200    9.6740 C   0  0  0  0  0  1  0  0  0  0  0  0
   23.2490   15.6100    7.4590 C   0  0  0  0  0  3  0  0  0  0  0  0
   22.1420   15.9280    9.3200 C   0  0  0  0  0  3  0  0  0  0  0  0
   27.7630   14.2880    9.2620 C   0  0  0  0  0  2  0  0  0  0  0  0
   22.0060   17.7630    7.5660 C   0  0  0  0  0  1  0  0  0  0  0  0
   27.0300   17.6060   10.6970 C   0  0  0  0  0  2  0  0  0  0  0  0
   27.6840   18.8010   11.0830 C   0  0  0  0  0  3  0  0  0  0  0  0
   29.0030   19.0810   10.6400 C   0  0  0  0  0  2  0  0  0  0  0  0
   29.6680   18.1570    9.7970 C   0  0  0  0  0  2  0  0  0  0  0  0
   29.0130   16.9630    9.4040 C   0  0  0  0  0  2  0  0  0  0  0  0
   27.1010   13.1180    8.8140 C   0  0  0  0  0  2  0  0  0  0  0  0
   25.7150   13.1520    8.5350 C   0  0  0  0  0  3  0  0  0  0  0  0
   24.9890   14.3580    8.7100 C   0  0  0  0  0  3  0  0  0  0  0  0
   25.6520   15.5280    9.1550 C   0  0  0  0  0  2  0  0  0  0  0  0
   23.6700   11.8330    8.2050 C   0  0  0  0  0  0  0  0  0  0  0  0
   22.9730   13.1160    7.7050 C   0  0  0  0  0  2  0  0  0  0  0  0
   26.8560   19.9110   12.0980 Cl  0  0  0  0  0  0  0  0  0  0  0  0
   22.4430   16.4760    8.1070 N   0  0  0  0  0  0  0  0  0  0  0  0
   22.6900   14.7790    9.5310 N   0  0  0  0  0  2  0  0  0  0  0  0
   21.3320   16.6140   10.2000 N   0  0  0  0  0  1  0  0  0  0  0  0
   23.8040   15.7700    6.3670 O   0  0  0  0  0  1  0  0  0  0  0  0
   25.0880   12.0020    8.1080 O   0  0  0  0  0  0  0  0  0  0  0  0
  1  3  1  0
  1  8  1  0
  1 18  1  0
  2  6  1  0
  2 17  1  0
  2 20  1  0
  2 23  1  0
  3 10  1  0
  3 14  1  0
  4 19  1  0
  5 19  1  0
  6 22  1  0
  6 25  1  0
  7 22  1  0
  7 23  1  0
  7 24  1  0
  8 15  1  0
  9 22  1  0
 10 11  1  0
 11 12  1  0
 11 21  1  0
 12 13  1  0
 13 14  1  0
 15 16  1  0
 16 17  1  0
 16 26  1  0
 17 18  1  0
 19 20  1  0
 19 26  1  0
M  END
$$$$
