4jpc_A_1M6_502
     RDKit          3D

 27 30  0  0  0  0  0  0  0  0999 V2000
   26.9470   15.3250    9.1860 C   0  0  0  0  0  3  0  0  0  0  0  0
   23.3110   14.3040    8.3820 C   0  0  0  0  0  0  0  0  0  0  0  0
   23.0360   15.4900    7.4390 C   0  0  0  0  0  3  0  0  0  0  0  0
   22.0880   15.9170    9.3720 C   0  0  0  0  0  3  0  0  0  0  0  0
   27.6390   16.5060    9.5380 C   0  0  0  0  0  3  0  0  0  0  0  0
   21.9330   17.7200    7.5940 C   0  0  0  0  0  1  0  0  0  0  0  0
   27.0450   17.4570   10.4030 C   0  0  0  0  0  2  0  0  0  0  0  0
   27.7420   18.6460   10.7270 C   0  0  0  0  0  3  0  0  0  0  0  0
   27.6320   14.0950    9.0140 C   0  0  0  0  0  2  0  0  0  0  0  0
   29.0290   18.9000   10.1880 C   0  0  0  0  0  2  0  0  0  0  0  0
   29.6220   17.9540    9.3150 C   0  0  0  0  0  2  0  0  0  0  0  0
   28.9240   16.7660    8.9880 C   0  0  0  0  0  2  0  0  0  0  0  0
   23.0150   10.5220    7.3590 C   0  0  0  0  0  1  0  0  0  0  0  0
   23.0750   11.3910    9.7230 C   0  0  0  0  0  1  0  0  0  0  0  0
   27.1330   19.6280   11.5960 C   0  0  0  0  0  2  0  0  0  0  0  0
   26.9220   12.9310    8.6410 C   0  0  0  0  0  2  0  0  0  0  0  0
   25.5210   12.9940    8.4420 C   0  0  0  0  0  3  0  0  0  0  0  0
   24.8260   14.2190    8.6190 C   0  0  0  0  0  3  0  0  0  0  0  0
   25.5440   15.3800    8.9820 C   0  0  0  0  0  2  0  0  0  0  0  0
   23.4360   11.7100    8.2520 C   0  0  0  0  0  0  0  0  0  0  0  0
   22.7180   13.0050    7.7980 C   0  0  0  0  0  2  0  0  0  0  0  0
   22.3290   16.4140    8.1240 N   0  0  0  0  0  0  0  0  0  0  0  0
   22.5740   14.7390    9.5680 N   0  0  0  0  0  2  0  0  0  0  0  0
   21.3210   16.6530   10.2630 N   0  0  0  0  0  1  0  0  0  0  0  0
   26.6290   20.3930   12.3010 N   0  0  0  0  0  1  0  0  0  0  0  0
   23.5150   15.6060    6.3060 O   0  0  0  0  0  1  0  0  0  0  0  0
   24.8500   11.8510    8.0940 O   0  0  0  0  0  0  0  0  0  0  0  0
  1  5  1  0
  1  9  1  0
  1 19  1  0
  2  3  1  0
  2 18  1  0
  2 21  1  0
  2 23  1  0
  3 22  1  0
  3 26  1  0
  4 22  1  0
  4 23  1  0
  4 24  1  0
  5  7  1  0
  5 12  1  0
  6 22  1  0
  7  8  1  0
  8 10  1  0
  8 15  1  0
  9 16  1  0
 10 11  1  0
 11 12  1  0
 13 20  1  0
 14 20  1  0
 15 25  1  0
 16 17  1  0
 17 18  1  0
 17 27  1  0
 18 19  1  0
 20 21  1  0
 20 27  1  0
M  END
$$$$
