4jpe_A_1M7_502
     RDKit          3D

 25 28  0  0  0  0  0  0  0  0999 V2000
   26.9220   15.5280    9.4710 C   0  0  0  0  0  3  0  0  0  0  0  0
   23.3790   14.3520    8.4320 C   0  0  0  0  0  0  0  0  0  0  0  0
   27.5100   16.7270    9.9630 C   0  0  0  0  0  3  0  0  0  0  0  0
   23.0830   15.5720    7.5430 C   0  0  0  0  0  3  0  0  0  0  0  0
   22.0470   15.8540    9.4480 C   0  0  0  0  0  3  0  0  0  0  0  0
   21.7750   17.6870    7.7060 C   0  0  0  0  0  1  0  0  0  0  0  0
   28.7330   17.2280    9.4320 C   0  0  0  0  0  2  0  0  0  0  0  0
   27.6930   14.3620    9.1990 C   0  0  0  0  0  2  0  0  0  0  0  0
   28.5880   19.0290   10.8520 C   0  0  0  0  0  2  0  0  0  0  0  0
   26.8810   17.5100   10.9660 C   0  0  0  0  0  2  0  0  0  0  0  0
   22.8510   10.6230    7.3770 C   0  0  0  0  0  1  0  0  0  0  0  0
   23.2220   11.4870    9.7010 C   0  0  0  0  0  1  0  0  0  0  0  0
   27.0620   13.1950    8.6920 C   0  0  0  0  0  2  0  0  0  0  0  0
   25.6610   13.1670    8.4420 C   0  0  0  0  0  3  0  0  0  0  0  0
   24.8860   14.3290    8.7110 C   0  0  0  0  0  3  0  0  0  0  0  0
   25.5200   15.4950    9.2170 C   0  0  0  0  0  2  0  0  0  0  0  0
   24.9900   11.8980    7.9020 C   0  0  0  0  0  2  0  0  0  0  0  0
   23.4720   11.7820    8.1960 C   0  0  0  0  0  0  0  0  0  0  0  0
   22.7700   13.0920    7.7680 C   0  0  0  0  0  2  0  0  0  0  0  0
   22.2800   16.4100    8.2250 N   0  0  0  0  0  0  0  0  0  0  0  0
   22.6180   14.7120    9.6310 N   0  0  0  0  0  2  0  0  0  0  0  0
   21.2500   16.5310   10.3440 N   0  0  0  0  0  1  0  0  0  0  0  0
   29.2650   18.3750    9.8890 N   0  0  0  0  0  2  0  0  0  0  0  0
   27.4230   18.6560   11.4060 N   0  0  0  0  0  2  0  0  0  0  0  0
   23.5120   15.7300    6.3950 O   0  0  0  0  0  1  0  0  0  0  0  0
  1  3  1  0
  1  8  1  0
  1 16  1  0
  2  4  1  0
  2 15  1  0
  2 19  1  0
  2 21  1  0
  3  7  1  0
  3 10  1  0
  4 20  1  0
  4 25  1  0
  5 20  1  0
  5 21  1  0
  5 22  1  0
  6 20  1  0
  7 23  1  0
  8 13  1  0
  9 23  1  0
  9 24  1  0
 10 24  1  0
 11 18  1  0
 12 18  1  0
 13 14  1  0
 14 15  1  0
 14 17  1  0
 15 16  1  0
 17 18  1  0
 18 19  1  0
M  END
$$$$
