4k8s_C_1QT_401
     RDKit          3D

 37 41  0  0  0  0  0  0  0  0999 V2000
   14.7080   -7.4270   49.5030 C   0  0  0  0  0  0  0  0  0  0  0  0
    4.0860   -4.0970   49.3120 C   0  0  0  0  0  2  0  0  0  0  0  0
    3.1290   -5.2530   49.1140 C   0  0  0  0  0  2  0  0  0  0  0  0
    3.3620   -5.9320   47.7890 C   0  0  0  0  0  2  0  0  0  0  0  0
    2.7000   -7.2930   47.7850 C   0  0  0  0  0  2  0  0  0  0  0  0
    3.6220   -8.3100   48.4450 C   0  0  0  0  0  3  0  0  0  0  0  0
    3.2590   -8.8000   49.7000 C   0  0  0  0  0  2  0  0  0  0  0  0
    4.0520   -9.7290   50.3170 C   0  0  0  0  0  2  0  0  0  0  0  0
    5.2220  -10.1350   49.6640 C   0  0  0  0  0  2  0  0  0  0  0  0
    5.6230   -9.6300   48.4480 C   0  0  0  0  0  3  0  0  0  0  0  0
    4.8020   -8.7190   47.8290 C   0  0  0  0  0  2  0  0  0  0  0  0
   16.0830   -7.8550   48.9890 C   0  0  0  0  0  2  0  0  0  0  0  0
    6.9590  -10.0830   47.8280 C   0  0  0  0  0  2  0  0  0  0  0  0
    9.5020   -9.4750   47.6220 C   0  0  0  0  0  3  0  0  0  0  0  0
   10.7230   -8.6760   48.1340 C   0  0  0  0  0  2  0  0  0  0  0  0
   13.2540   -9.0080   48.2510 C   0  0  0  0  0  3  0  0  0  0  0  0
   13.5350   -7.5230   48.5310 C   0  0  0  0  0  2  0  0  0  0  0  0
   13.3540   -9.8090   49.5750 C   0  0  0  0  0  3  0  0  0  0  0  0
   13.9500   -9.2780   50.7220 C   0  0  0  0  0  3  0  0  0  0  0  0
   14.0150  -10.0570   51.8990 C   0  0  0  0  0  2  0  0  0  0  0  0
   13.5070  -11.3410   51.8990 C   0  0  0  0  0  2  0  0  0  0  0  0
   12.9750  -11.8760   50.7120 C   0  0  0  0  0  3  0  0  0  0  0  0
   16.4370   -6.3490   48.8760 C   0  0  0  0  0  2  0  0  0  0  0  0
   12.8860  -11.1150   49.5780 C   0  0  0  0  0  2  0  0  0  0  0  0
   12.4130  -13.2600   50.6500 C   0  0  0  0  0  2  0  0  0  0  0  0
   13.3980  -14.2730   50.1260 C   0  0  0  0  0  1  0  0  0  0  0  0
   15.1480   -5.9830   49.6000 C   0  0  0  0  0  2  0  0  0  0  0  0
    8.1470   -9.2860   48.4110 C   0  0  0  0  0  3  0  0  0  0  0  0
    7.9600   -7.1280   49.5560 C   0  0  0  0  0  3  0  0  0  0  0  0
    7.5980   -5.6380   49.4730 C   0  0  0  0  0  2  0  0  0  0  0  0
    6.2160   -5.2730   50.0190 C   0  0  0  0  0  2  0  0  0  0  0  0
    5.4720   -4.5070   48.9090 C   0  0  0  0  0  2  0  0  0  0  0  0
    7.7910   -7.8740   48.4680 N   0  0  0  0  0  2  0  0  0  0  0  0
   11.9560   -9.2440   47.4710 N   0  0  0  0  0  2  0  0  0  0  0  0
    8.4640   -7.5510   50.5680 O   0  0  0  0  0  1  0  0  0  0  0  0
    9.9780  -10.8160   47.6160 O   0  0  0  0  0  1  0  0  0  0  0  0
   14.4520   -7.9810   50.7540 O   0  0  0  0  0  0  0  0  0  0  0  0
  1 12  1  0
  1 17  1  0
  1 27  1  0
  1 37  1  0
  2  3  1  0
  2 32  1  0
  3  4  1  0
  4  5  1  0
  5  6  1  0
  6  7  1  0
  6 11  1  0
  7  8  1  0
  8  9  1  0
  9 10  1  0
 10 11  1  0
 10 13  1  0
 12 23  1  0
 13 28  1  0
 14 15  1  0
 14 28  1  0
 14 36  1  0
 15 34  1  0
 16 17  1  0
 16 18  1  0
 16 34  1  0
 18 19  1  0
 18 24  1  0
 19 20  1  0
 19 37  1  0
 20 21  1  0
 21 22  1  0
 22 24  1  0
 22 25  1  0
 23 27  1  0
 25 26  1  0
 28 33  1  0
 29 30  1  0
 29 33  1  0
 29 35  1  0
 30 31  1  0
 31 32  1  0
M  END
$$$$
