4k9h_A_1QU_401
     RDKit          3D

 44 48  0  0  0  0  0  0  0  0999 V2000
   61.4090  -16.4100   21.3220 C   0  0  0  0  0  3  0  0  0  0  0  0
   63.0630  -15.0630   15.8380 C   0  0  0  0  0  2  0  0  0  0  0  0
   64.7190  -14.3650   18.3690 C   0  0  0  0  0  2  0  0  0  0  0  0
   64.8970  -13.8990   19.6620 C   0  0  0  0  0  3  0  0  0  0  0  0
   64.2330  -14.5470   20.7080 C   0  0  0  0  0  2  0  0  0  0  0  0
   66.3560   -7.5570   23.3620 C   0  0  0  0  0  3  0  0  0  0  0  0
   67.2620   -6.6420   22.7790 C   0  0  0  0  0  2  0  0  0  0  0  0
   68.5650   -6.4900   23.2400 C   0  0  0  0  0  3  0  0  0  0  0  0
   68.9720   -7.3200   24.2710 C   0  0  0  0  0  2  0  0  0  0  0  0
   68.0960   -8.2220   24.8520 C   0  0  0  0  0  2  0  0  0  0  0  0
   66.7710   -8.3570   24.4120 C   0  0  0  0  0  2  0  0  0  0  0  0
   60.9310  -17.2990   22.4310 C   0  0  0  0  0  2  0  0  0  0  0  0
   67.5310  -11.5040   17.0100 C   0  0  0  0  0  3  0  0  0  0  0  0
   68.3160  -12.3670   17.7790 C   0  0  0  0  0  2  0  0  0  0  0  0
   68.7930  -13.5630   17.2400 C   0  0  0  0  0  2  0  0  0  0  0  0
   68.5380  -13.8840   15.9180 C   0  0  0  0  0  2  0  0  0  0  0  0
   67.7800  -13.0170   15.1530 C   0  0  0  0  0  2  0  0  0  0  0  0
   67.2660  -11.8590   15.7050 C   0  0  0  0  0  2  0  0  0  0  0  0
   65.7420  -12.6150   19.8810 C   0  0  0  0  0  3  0  0  0  0  0  0
   66.3500  -10.3900   19.0030 C   0  0  0  0  0  3  0  0  0  0  0  0
   65.6680   -9.1330   19.4560 C   0  0  0  0  0  3  0  0  0  0  0  0
   65.2960   -9.1750   20.9410 C   0  0  0  0  0  2  0  0  0  0  0  0
   62.2270  -17.6360   23.2290 C   0  0  0  0  0  2  0  0  0  0  0  0
   64.8810   -7.7080   22.8450 C   0  0  0  0  0  2  0  0  0  0  0  0
   66.9600  -10.1810   17.5900 C   0  0  0  0  0  2  0  0  0  0  0  0
   69.5670   -5.4560   22.5740 C   0  0  0  0  0  0  0  0  0  0  0  0
   63.4630  -15.6940   20.4070 C   0  0  0  0  0  3  0  0  0  0  0  0
   63.3930  -17.1810   22.3610 C   0  0  0  0  0  2  0  0  0  0  0  0
   63.3440  -16.1380   19.0970 C   0  0  0  0  0  3  0  0  0  0  0  0
   63.8120  -16.0310   16.7620 C   0  0  0  0  0  3  0  0  0  0  0  0
   65.2040  -16.3140   16.1130 C   0  0  0  0  0  2  0  0  0  0  0  0
   65.1910  -15.5550   14.8160 C   0  0  0  0  0  2  0  0  0  0  0  0
   64.1970  -14.4310   15.0620 C   0  0  0  0  0  2  0  0  0  0  0  0
   69.8560   -5.9640   21.4010 F   0  0  0  0  0  0  0  0  0  0  0  0
   70.7020   -5.2660   23.2260 F   0  0  0  0  0  0  0  0  0  0  0  0
   69.0640   -4.2370   22.3880 F   0  0  0  0  0  0  0  0  0  0  0  0
   62.7750  -16.3600   21.3070 N   0  0  0  0  0  0  0  0  0  0  0  0
   63.9750  -15.4870   18.1080 N   0  0  0  0  0  0  0  0  0  0  0  0
   65.5620  -11.6330   18.9870 N   0  0  0  0  0  2  0  0  0  0  0  0
   64.9230   -7.8290   21.3490 N   0  0  0  0  0  2  0  0  0  0  0  0
   60.6160  -15.8510   20.5330 O   0  0  0  0  0  1  0  0  0  0  0  0
   66.2810  -12.4370   20.9630 O   0  0  0  0  0  1  0  0  0  0  0  0
   66.5710   -8.0390   19.2730 O   0  0  0  0  0  1  0  0  0  0  0  0
   62.6530  -17.0980   18.7880 O   0  0  0  0  0  1  0  0  0  0  0  0
  1 12  1  0
  1 37  1  0
  1 41  1  0
  2 30  1  0
  2 33  1  0
  3  4  1  0
  3 38  1  0
  4  5  1  0
  4 19  1  0
  5 27  1  0
  6  7  1  0
  6 11  1  0
  6 24  1  0
  7  8  1  0
  8  9  1  0
  8 26  1  0
  9 10  1  0
 10 11  1  0
 12 23  1  0
 13 14  1  0
 13 18  1  0
 13 25  1  0
 14 15  1  0
 15 16  1  0
 16 17  1  0
 17 18  1  0
 19 39  1  0
 19 42  1  0
 20 21  1  0
 20 25  1  0
 20 39  1  0
 21 22  1  0
 21 43  1  0
 22 40  1  0
 23 28  1  0
 24 40  1  0
 26 34  1  0
 26 35  1  0
 26 36  1  0
 27 29  1  0
 27 37  1  0
 28 37  1  0
 29 38  1  0
 29 44  1  0
 30 31  1  0
 30 38  1  0
 31 32  1  0
 32 33  1  0
M  END
$$$$
