4k9h_B_1QU_401
     RDKit          3D

 44 48  0  0  0  0  0  0  0  0999 V2000
   24.0740   38.8910   17.3840 C   0  0  0  0  0  3  0  0  0  0  0  0
   28.8280   43.0110   19.6810 C   0  0  0  0  0  2  0  0  0  0  0  0
   28.9200   40.4720   17.4290 C   0  0  0  0  0  2  0  0  0  0  0  0
   28.4200   39.7420   16.4330 C   0  0  0  0  0  3  0  0  0  0  0  0
   27.1940   39.1280   16.6320 C   0  0  0  0  0  2  0  0  0  0  0  0
   31.4980   35.9280   10.8460 C   0  0  0  0  0  3  0  0  0  0  0  0
   32.7070   36.3960   10.2890 C   0  0  0  0  0  2  0  0  0  0  0  0
   32.7310   37.1110    9.1080 C   0  0  0  0  0  3  0  0  0  0  0  0
   31.5340   37.3430    8.4450 C   0  0  0  0  0  2  0  0  0  0  0  0
   30.3490   36.8570    8.9830 C   0  0  0  0  0  2  0  0  0  0  0  0
   30.2960   36.1490   10.1970 C   0  0  0  0  0  2  0  0  0  0  0  0
   22.9650   37.9810   17.8980 C   0  0  0  0  0  2  0  0  0  0  0  0
   32.3560   41.7720   15.6440 C   0  0  0  0  0  3  0  0  0  0  0  0
   31.2950   42.3970   15.0110 C   0  0  0  0  0  2  0  0  0  0  0  0
   30.7370   43.5830   15.5060 C   0  0  0  0  0  2  0  0  0  0  0  0
   31.3010   44.1730   16.6540 C   0  0  0  0  0  2  0  0  0  0  0  0
   32.3580   43.5210   17.3000 C   0  0  0  0  0  2  0  0  0  0  0  0
   32.8680   42.3130   16.8180 C   0  0  0  0  0  2  0  0  0  0  0  0
   29.3770   39.5770   15.2870 C   0  0  0  0  0  3  0  0  0  0  0  0
   31.7450   39.4810   14.6340 C   0  0  0  0  0  3  0  0  0  0  0  0
   32.3440   38.1010   14.4270 C   0  0  0  0  0  3  0  0  0  0  0  0
   31.4170   37.1520   13.6470 C   0  0  0  0  0  2  0  0  0  0  0  0
   23.6600   37.3620   19.1010 C   0  0  0  0  0  2  0  0  0  0  0  0
   31.4970   35.1560   12.1740 C   0  0  0  0  0  2  0  0  0  0  0  0
   32.8850   40.4160   15.1290 C   0  0  0  0  0  2  0  0  0  0  0  0
   34.0470   37.5840    8.4890 C   0  0  0  0  0  0  0  0  0  0  0  0
   26.4080   39.3400   17.7750 C   0  0  0  0  0  3  0  0  0  0  0  0
   25.1970   37.5920   18.9640 C   0  0  0  0  0  2  0  0  0  0  0  0
   26.9100   40.1380   18.7930 C   0  0  0  0  0  3  0  0  0  0  0  0
   28.9630   41.5010   19.4140 C   0  0  0  0  0  3  0  0  0  0  0  0
   29.5190   40.8190   20.6180 C   0  0  0  0  0  2  0  0  0  0  0  0
   30.7590   41.7270   20.5880 C   0  0  0  0  0  2  0  0  0  0  0  0
   30.2410   43.1750   20.3360 C   0  0  0  0  0  2  0  0  0  0  0  0
   33.8470   38.2120    7.3260 F   0  0  0  0  0  0  0  0  0  0  0  0
   34.6650   36.4750    8.2360 F   0  0  0  0  0  0  0  0  0  0  0  0
   34.8590   38.3030    9.2560 F   0  0  0  0  0  0  0  0  0  0  0  0
   25.2550   38.7250   17.9790 N   0  0  0  0  0  0  0  0  0  0  0  0
   28.1360   40.6870   18.5870 N   0  0  0  0  0  0  0  0  0  0  0  0
   30.6520   39.5170   15.6250 N   0  0  0  0  0  2  0  0  0  0  0  0
   32.2220   35.9850   13.1690 N   0  0  0  0  0  2  0  0  0  0  0  0
   23.8270   39.7740   16.5970 O   0  0  0  0  0  1  0  0  0  0  0  0
   29.0130   39.5390   14.1510 O   0  0  0  0  0  1  0  0  0  0  0  0
   33.5860   38.2250   13.6230 O   0  0  0  0  0  1  0  0  0  0  0  0
   26.2690   40.3160   19.7980 O   0  0  0  0  0  1  0  0  0  0  0  0
  1 12  1  0
  1 37  1  0
  1 41  1  0
  2 30  1  0
  2 33  1  0
  3  4  1  0
  3 38  1  0
  4  5  1  0
  4 19  1  0
  5 27  1  0
  6  7  1  0
  6 11  1  0
  6 24  1  0
  7  8  1  0
  8  9  1  0
  8 26  1  0
  9 10  1  0
 10 11  1  0
 12 23  1  0
 13 14  1  0
 13 18  1  0
 13 25  1  0
 14 15  1  0
 15 16  1  0
 16 17  1  0
 17 18  1  0
 19 39  1  0
 19 42  1  0
 20 21  1  0
 20 25  1  0
 20 39  1  0
 21 22  1  0
 21 43  1  0
 22 40  1  0
 23 28  1  0
 24 40  1  0
 26 34  1  0
 26 35  1  0
 26 36  1  0
 27 29  1  0
 27 37  1  0
 28 37  1  0
 29 38  1  0
 29 44  1  0
 30 31  1  0
 30 38  1  0
 31 32  1  0
 32 33  1  0
M  END
$$$$
