4ke0_A_1R8_501
     RDKit          3D

 36 40  0  0  0  0  0  0  0  0999 V2000
   28.7860    1.5110   11.3470 C   0  0  0  0  0  0  0  0  0  0  0  0
   30.9570    2.4480   12.2150 C   0  0  0  0  0  3  0  0  0  0  0  0
   29.5470    1.9580   12.6110 C   0  0  0  0  0  2  0  0  0  0  0  0
   30.9050    3.2650   10.8860 C   0  0  0  0  0  3  0  0  0  0  0  0
   29.7640    3.2720   10.0740 C   0  0  0  0  0  3  0  0  0  0  0  0
   29.7600    4.0180    8.8880 C   0  0  0  0  0  2  0  0  0  0  0  0
   30.9010    4.7300    8.5000 C   0  0  0  0  0  2  0  0  0  0  0  0
   32.0380    4.7110    9.2980 C   0  0  0  0  0  3  0  0  0  0  0  0
   32.0370    3.9770   10.4780 C   0  0  0  0  0  2  0  0  0  0  0  0
   29.2900    0.1920   10.7140 C   0  0  0  0  0  2  0  0  0  0  0  0
   33.2990    5.4800    8.8900 C   0  0  0  0  0  2  0  0  0  0  0  0
   34.3420    4.5010    8.3220 C   0  0  0  0  0  1  0  0  0  0  0  0
   32.6370    7.5870   15.4370 C   0  0  0  0  0  2  0  0  0  0  0  0
   32.1340    8.9420   15.9500 C   0  0  0  0  0  3  0  0  0  0  0  0
   31.5870    9.0370   17.2340 C   0  0  0  0  0  2  0  0  0  0  0  0
   31.1170   10.2570   17.7240 C   0  0  0  0  0  3  0  0  0  0  0  0
   31.1910   11.4000   16.9150 C   0  0  0  0  0  2  0  0  0  0  0  0
   31.7450   11.3070   15.6300 C   0  0  0  0  0  2  0  0  0  0  0  0
   32.2190   10.0810   15.1400 C   0  0  0  0  0  2  0  0  0  0  0  0
   30.5060   10.3240   19.1440 C   0  0  0  0  0  2  0  0  0  0  0  0
   28.0370   -0.5240   11.2250 C   0  0  0  0  0  2  0  0  0  0  0  0
   28.9510   10.3560   19.1200 C   0  0  0  0  0  2  0  0  0  0  0  0
   29.1190    7.0760   15.1390 C   0  0  0  0  0  3  0  0  0  0  0  0
   28.3030    9.1000   18.4700 C   0  0  0  0  0  2  0  0  0  0  0  0
   27.9740    9.3500   16.9720 C   0  0  0  0  0  2  0  0  0  0  0  0
   27.1720    8.2010   16.3290 C   0  0  0  0  0  2  0  0  0  0  0  0
   27.9830    6.9090   16.1490 C   0  0  0  0  0  2  0  0  0  0  0  0
   27.4650    0.8270   11.7140 C   0  0  0  0  0  2  0  0  0  0  0  0
   31.5340    6.7940   14.7140 C   0  0  0  0  0  3  0  0  0  0  0  0
   32.0320    5.3850   14.3540 C   0  0  0  0  0  3  0  0  0  0  0  0
   31.0010    4.5240   13.6320 C   0  0  0  0  0  2  0  0  0  0  0  0
   31.6080    3.2050   13.3270 N   0  0  0  0  0  2  0  0  0  0  0  0
   30.3310    6.6990   15.5620 N   0  0  0  0  0  2  0  0  0  0  0  0
   28.6310    2.5870   10.4100 O   0  0  0  0  0  0  0  0  0  0  0  0
   28.8850    7.5100   14.0110 O   0  0  0  0  0  1  0  0  0  0  0  0
   33.1630    5.4830   13.5070 O   0  0  0  0  0  1  0  0  0  0  0  0
  1  3  1  0
  1 10  1  0
  1 28  1  0
  1 34  1  0
  2  3  1  0
  2  4  1  0
  2 32  1  0
  4  5  1  0
  4  9  1  0
  5  6  1  0
  5 34  1  0
  6  7  1  0
  7  8  1  0
  8  9  1  0
  8 11  1  0
 10 21  1  0
 11 12  1  0
 13 14  1  0
 13 29  1  0
 14 15  1  0
 14 19  1  0
 15 16  1  0
 16 17  1  0
 16 20  1  0
 17 18  1  0
 18 19  1  0
 20 22  1  0
 21 28  1  0
 22 24  1  0
 23 27  1  0
 23 33  1  0
 23 35  1  0
 24 25  1  0
 25 26  1  0
 26 27  1  0
 29 30  1  0
 29 33  1  0
 30 31  1  0
 30 36  1  0
 31 32  1  0
M  END
$$$$
