4ke0_B_1R8_501
     RDKit          3D

 36 40  0  0  0  0  0  0  0  0999 V2000
   41.1510   11.6870   47.9800 C   0  0  0  0  0  0  0  0  0  0  0  0
   42.5790   10.0690   49.2740 C   0  0  0  0  0  3  0  0  0  0  0  0
   42.3110   11.5640   48.9810 C   0  0  0  0  0  2  0  0  0  0  0  0
   42.4790    9.2480   47.9550 C   0  0  0  0  0  3  0  0  0  0  0  0
   41.9240    9.7730   46.7800 C   0  0  0  0  0  3  0  0  0  0  0  0
   41.8610    8.9940   45.6200 C   0  0  0  0  0  2  0  0  0  0  0  0
   42.3570    7.6900   45.6240 C   0  0  0  0  0  2  0  0  0  0  0  0
   42.9090    7.1690   46.7970 C   0  0  0  0  0  3  0  0  0  0  0  0
   42.9640    7.9470   47.9450 C   0  0  0  0  0  2  0  0  0  0  0  0
   39.7940   11.3420   48.6060 C   0  0  0  0  0  2  0  0  0  0  0  0
   43.4530    5.7470   46.8470 C   0  0  0  0  0  2  0  0  0  0  0  0
   42.4630    4.8440   47.5710 C   0  0  0  0  0  1  0  0  0  0  0  0
   48.8280    9.0750   49.5780 C   0  0  0  0  0  2  0  0  0  0  0  0
   50.1570    9.4650   48.9040 C   0  0  0  0  0  3  0  0  0  0  0  0
   50.9010   10.5500   49.3760 C   0  0  0  0  0  2  0  0  0  0  0  0
   52.1030   10.8980   48.7500 C   0  0  0  0  0  3  0  0  0  0  0  0
   52.5710   10.1650   47.6550 C   0  0  0  0  0  2  0  0  0  0  0  0
   51.8320    9.0780   47.1870 C   0  0  0  0  0  2  0  0  0  0  0  0
   50.6260    8.7360   47.8070 C   0  0  0  0  0  2  0  0  0  0  0  0
   52.9030   12.0980   49.2650 C   0  0  0  0  0  2  0  0  0  0  0  0
   39.4090   12.8240   48.5400 C   0  0  0  0  0  2  0  0  0  0  0  0
   52.7830   13.3190   48.3150 C   0  0  0  0  0  2  0  0  0  0  0  0
   47.8880   11.9210   47.6940 C   0  0  0  0  0  3  0  0  0  0  0  0
   51.3450   13.8650   48.2030 C   0  0  0  0  0  2  0  0  0  0  0  0
   50.6230   13.3410   46.9290 C   0  0  0  0  0  2  0  0  0  0  0  0
   49.2060   13.9380   46.7920 C   0  0  0  0  0  2  0  0  0  0  0  0
   48.2040   13.4140   47.8500 C   0  0  0  0  0  2  0  0  0  0  0  0
   40.7100   13.1430   47.7990 C   0  0  0  0  0  2  0  0  0  0  0  0
   47.6300    9.8000   48.9520 C   0  0  0  0  0  3  0  0  0  0  0  0
   46.3470    9.6070   49.7820 C   0  0  0  0  0  3  0  0  0  0  0  0
   45.1050   10.2820   49.1790 C   0  0  0  0  0  2  0  0  0  0  0  0
   43.8970    9.8840   49.9740 N   0  0  0  0  0  2  0  0  0  0  0  0
   47.9190   11.2370   48.8440 N   0  0  0  0  0  2  0  0  0  0  0  0
   41.4210   11.0420   46.7110 O   0  0  0  0  0  0  0  0  0  0  0  0
   47.6170   11.4300   46.5900 O   0  0  0  0  0  1  0  0  0  0  0  0
   46.0680    8.2220   49.8780 O   0  0  0  0  0  1  0  0  0  0  0  0
  1  3  1  0
  1 10  1  0
  1 28  1  0
  1 34  1  0
  2  3  1  0
  2  4  1  0
  2 32  1  0
  4  5  1  0
  4  9  1  0
  5  6  1  0
  5 34  1  0
  6  7  1  0
  7  8  1  0
  8  9  1  0
  8 11  1  0
 10 21  1  0
 11 12  1  0
 13 14  1  0
 13 29  1  0
 14 15  1  0
 14 19  1  0
 15 16  1  0
 16 17  1  0
 16 20  1  0
 17 18  1  0
 18 19  1  0
 20 22  1  0
 21 28  1  0
 22 24  1  0
 23 27  1  0
 23 33  1  0
 23 35  1  0
 24 25  1  0
 25 26  1  0
 26 27  1  0
 29 30  1  0
 29 33  1  0
 30 31  1  0
 30 36  1  0
 31 32  1  0
M  END
$$$$
