4ke1_A_1R6_404
     RDKit          3D

 41 46  0  0  0  0  0  0  0  0999 V2000
   63.0310   45.8480    9.3580 C   0  0  0  0  0  0  0  0  0  0  0  0
   71.6920   49.4160    5.6000 C   0  0  0  0  0  2  0  0  0  0  0  0
   69.4450   50.1480    6.5540 C   0  0  0  0  0  2  0  0  0  0  0  0
   68.6220   49.0410    7.2460 C   0  0  0  0  0  3  0  0  0  0  0  0
   73.8530   48.6410    4.5070 C   0  0  0  0  0  2  0  0  0  0  0  0
   74.1880   47.1510    4.6920 C   0  0  0  0  0  2  0  0  0  0  0  0
   73.0500   46.2290    4.2540 C   0  0  0  0  0  2  0  0  0  0  0  0
   67.1540   49.0640    6.7850 C   0  0  0  0  0  3  0  0  0  0  0  0
   66.2800   48.0650    7.5560 C   0  0  0  0  0  2  0  0  0  0  0  0
   63.8410   47.8500    8.1100 C   0  0  0  0  0  3  0  0  0  0  0  0
   63.8370   46.3040    8.1350 C   0  0  0  0  0  2  0  0  0  0  0  0
   61.5320   46.1340    9.1980 C   0  0  0  0  0  2  0  0  0  0  0  0
   63.9610   48.4820    9.5180 C   0  0  0  0  0  3  0  0  0  0  0  0
   63.7990   47.6890   10.6690 C   0  0  0  0  0  3  0  0  0  0  0  0
   63.9030   48.2700   11.9380 C   0  0  0  0  0  2  0  0  0  0  0  0
   64.1260   49.6410   12.0720 C   0  0  0  0  0  2  0  0  0  0  0  0
   64.2660   50.4390   10.9290 C   0  0  0  0  0  3  0  0  0  0  0  0
   64.1830   49.8630    9.6530 C   0  0  0  0  0  2  0  0  0  0  0  0
   64.5210   51.9420   11.0830 C   0  0  0  0  0  2  0  0  0  0  0  0
   63.3020   52.7610   10.6650 C   0  0  0  0  0  1  0  0  0  0  0  0
   69.5540   46.8520    7.8870 C   0  0  0  0  0  3  0  0  0  0  0  0
   70.1700   45.6180    7.2670 C   0  0  0  0  0  3  0  0  0  0  0  0
   61.3230   44.6630    8.8160 C   0  0  0  0  0  2  0  0  0  0  0  0
   69.5620   44.3670    7.4040 C   0  0  0  0  0  2  0  0  0  0  0  0
   70.1250   43.2570    6.7760 C   0  0  0  0  0  2  0  0  0  0  0  0
   71.2730   43.4090    5.9950 C   0  0  0  0  0  3  0  0  0  0  0  0
   71.3060   45.7840    6.4860 C   0  0  0  0  0  2  0  0  0  0  0  0
   73.1010   44.8830    5.0150 C   0  0  0  0  0  2  0  0  0  0  0  0
   62.7340   44.3450    9.3440 C   0  0  0  0  0  2  0  0  0  0  0  0
   73.0690   49.1920    5.7040 C   0  0  0  0  0  3  0  0  0  0  0  0
   73.7130   49.4480    6.9110 C   0  0  0  0  0  2  0  0  0  0  0  0
   72.9860   49.9480    7.9890 C   0  0  0  0  0  2  0  0  0  0  0  0
   71.6110   50.1700    7.8800 C   0  0  0  0  0  2  0  0  0  0  0  0
   70.9620   49.9040    6.6780 C   0  0  0  0  0  3  0  0  0  0  0  0
   69.2190   47.7420    6.9470 N   0  0  0  0  0  2  0  0  0  0  0  0
   64.8740   48.3230    7.1720 N   0  0  0  0  0  2  0  0  0  0  0  0
   71.8780   44.6900    5.8430 N   0  0  0  0  0  0  0  0  0  0  0  0
   63.5750   46.3350   10.5970 O   0  0  0  0  0  0  0  0  0  0  0  0
   66.6620   50.3840    7.0440 O   0  0  0  0  0  1  0  0  0  0  0  0
   69.3050   46.9530    9.0840 O   0  0  0  0  0  1  0  0  0  0  0  0
   71.7440   42.4170    5.4390 O   0  0  0  0  0  1  0  0  0  0  0  0
  1 11  1  0
  1 12  1  0
  1 29  1  0
  1 38  1  0
  2 30  1  0
  2 34  1  0
  3  4  1  0
  3 34  1  0
  4  8  1  0
  4 35  1  0
  5  6  1  0
  5 30  1  0
  6  7  1  0
  7 28  1  0
  8  9  1  0
  8 39  1  0
  9 36  1  0
 10 11  1  0
 10 13  1  0
 10 36  1  0
 12 23  1  0
 13 14  1  0
 13 18  1  0
 14 15  1  0
 14 38  1  0
 15 16  1  0
 16 17  1  0
 17 18  1  0
 17 19  1  0
 19 20  1  0
 21 22  1  0
 21 35  1  0
 21 40  1  0
 22 24  1  0
 22 27  1  0
 23 29  1  0
 24 25  1  0
 25 26  1  0
 26 37  1  0
 26 41  1  0
 27 37  1  0
 28 37  1  0
 30 31  1  0
 31 32  1  0
 32 33  1  0
 33 34  1  0
M  END
$$$$
