4l7g_A_1W0_501
     RDKit          3D

 22 25  0  0  0  0  0  0  0  0999 V2000
   10.4410   -7.3980   16.8970 C   0  0  0  0  0  2  0  0  0  0  0  0
   15.4400   -5.9250   18.7190 C   0  0  0  0  0  2  0  0  0  0  0  0
   14.5450   -5.2960   17.6750 C   0  0  0  0  0  3  0  0  0  0  0  0
   15.3550   -4.7470   15.6530 C   0  0  0  0  0  3  0  0  0  0  0  0
    9.8860   -3.9890   15.3730 C   0  0  0  0  0  3  0  0  0  0  0  0
   10.3820   -3.3030   14.2630 C   0  0  0  0  0  2  0  0  0  0  0  0
    9.7920   -6.2940   16.3740 C   0  0  0  0  0  2  0  0  0  0  0  0
    8.7170   -1.7270   14.5070 C   0  0  0  0  0  2  0  0  0  0  0  0
    8.7650   -3.4520   16.0200 C   0  0  0  0  0  2  0  0  0  0  0  0
   10.5350   -5.2170   15.9000 C   0  0  0  0  0  3  0  0  0  0  0  0
   11.9300   -5.2610   15.9790 C   0  0  0  0  0  2  0  0  0  0  0  0
   12.5780   -6.3590   16.5120 C   0  0  0  0  0  3  0  0  0  0  0  0
   11.8280   -7.4350   16.9700 C   0  0  0  0  0  2  0  0  0  0  0  0
   14.0980   -6.3620   16.5990 C   0  0  0  0  0  0  0  0  0  0  0  0
   14.6210   -7.7070   17.0760 C   0  0  0  0  0  2  0  0  0  0  0  0
   16.1640   -7.5820   17.1370 C   0  0  0  0  0  2  0  0  0  0  0  0
   14.7460   -5.8750   15.3990 N   0  0  0  0  0  2  0  0  0  0  0  0
   16.0960   -4.0740   14.7380 N   0  0  0  0  0  1  0  0  0  0  0  0
    9.7820   -2.1880   13.8740 N   0  0  0  0  0  2  0  0  0  0  0  0
    8.2160   -2.3360   15.5650 N   0  0  0  0  0  2  0  0  0  0  0  0
   16.5420   -6.5190   18.0010 O   0  0  0  0  0  0  0  0  0  0  0  0
   15.1880   -4.2860   16.9140 O   0  0  0  0  0  0  0  0  0  0  0  0
  1  7  1  0
  1 13  1  0
  2  3  1  0
  2 21  1  0
  3 14  1  0
  3 22  1  0
  4 17  1  0
  4 18  1  0
  4 22  1  0
  5  6  1  0
  5  9  1  0
  5 10  1  0
  6 19  1  0
  7 10  1  0
  8 19  1  0
  8 20  1  0
  9 20  1  0
 10 11  1  0
 11 12  1  0
 12 13  1  0
 12 14  1  0
 14 15  1  0
 14 17  1  0
 15 16  1  0
 16 21  1  0
M  END
$$$$
