4l7h_A_1W1_501
     RDKit          3D

 52135  0  0  0  0  0  0  0  0999 V2000
   19.6920   -7.4630   21.4380 C   0  0  0  0  0  0  0  0  0  0  0  0
   20.1890   -7.5830   20.8680 C   0  0  0  0  0  0  0  0  0  0  0  0
   14.4380   -6.8540   16.8740 C   0  0  0  0  0  9  0  0  0  0  0  0
   14.4570   -6.9090   16.9060 C   0  0  0  0  0  9  0  0  0  0  0  0
   14.8790   -5.6760   17.8260 C   0  0  0  0  0  7  0  0  0  0  0  0
   14.9230   -5.7710   17.8940 C   0  0  0  0  0  7  0  0  0  0  0  0
   15.4650   -6.2490   19.0970 C   0  0  0  0  0  0  0  0  0  0  0  0
   15.7180   -6.3850   19.0240 C   0  0  0  0  0  5  0  0  0  0  0  0
   15.5300   -5.2770   15.7660 C   0  0  0  0  0  7  0  0  0  0  0  0
   15.5550   -5.2720   15.7110 C   0  0  0  0  0  7  0  0  0  0  0  0
   12.9320   -7.0600   16.8860 C   0  0  0  0  0  7  0  0  0  0  0  0
   12.9460   -7.0730   16.9070 C   0  0  0  0  0  7  0  0  0  0  0  0
   12.2250   -6.8520   15.7140 C   0  0  0  0  0  5  0  0  0  0  0  0
   12.2490   -6.8910   15.7260 C   0  0  0  0  0  5  0  0  0  0  0  0
   10.8530   -7.0380   15.6760 C   0  0  0  0  0  5  0  0  0  0  0  0
   10.8720   -7.0450   15.6910 C   0  0  0  0  0  5  0  0  0  0  0  0
   19.1090   -7.1130   21.5880 C   0  0  0  0  0  0  0  0  0  0  0  0
   20.0710   -7.8980   20.1820 C   0  0  0  0  0  5  0  0  0  0  0  0
   10.1700   -7.4400   16.8120 C   0  0  0  0  0  7  0  0  0  0  0  0
   10.1770   -7.3920   16.8390 C   0  0  0  0  0  7  0  0  0  0  0  0
   10.8650   -7.6530   17.9860 C   0  0  0  0  0  5  0  0  0  0  0  0
   10.8650   -7.5810   18.0220 C   0  0  0  0  0  5  0  0  0  0  0  0
   12.2370   -7.4670   18.0260 C   0  0  0  0  0  7  0  0  0  0  0  0
   12.2420   -7.4260   18.0590 C   0  0  0  0  0  7  0  0  0  0  0  0
   16.8220   -6.3840   21.7620 C   0  0  0  0  0  0  0  0  0  0  0  0
   19.6350   -8.2420   17.8220 C   0  0  0  0  0  3  0  0  0  0  0  0
   17.8920   -6.8690   20.9380 C   0  0  0  0  0  6  0  0  0  0  0  0
   19.1830   -7.7730   19.1050 C   0  0  0  0  0  6  0  0  0  0  0  0
   17.8150   -7.1190   19.5340 C   0  0  0  0  0  7  0  0  0  0  0  0
   17.9040   -7.2040   19.3600 C   0  0  0  0  0  7  0  0  0  0  0  0
   18.4390   -6.9090   21.6060 C   0  0  0  0  0  5  0  0  0  0  0  0
   20.0440   -7.8000   19.5140 C   0  0  0  0  0  0  0  0  0  0  0  0
   16.5730   -8.1220   17.5340 C   0  0  0  0  0  5  0  0  0  0  0  0
   16.5840   -7.9340   17.6290 C   0  0  0  0  0  5  0  0  0  0  0  0
   15.0480   -8.2520   17.3170 C   0  0  0  0  0  5  0  0  0  0  0  0
   15.0970   -8.1690   17.2820 C   0  0  0  0  0  5  0  0  0  0  0  0
   12.8600   -7.6900   19.2010 F   0  0  0  0  0  3  0  0  0  0  0  0
   12.8650   -7.6200   19.2420 F   0  0  0  0  0  3  0  0  0  0  0  0
    8.8280   -7.6220   16.7820 F   0  0  0  0  0  3  0  0  0  0  0  0
    8.8310   -7.5420   16.8100 F   0  0  0  0  0  3  0  0  0  0  0  0
   14.8120   -6.3430   15.5650 N   0  0  0  0  0  5  0  0  0  0  0  0
   14.8870   -6.4100   15.6110 N   0  0  0  0  0  5  0  0  0  0  0  0
   16.0720   -4.5730   14.7170 N   0  0  0  0  0  0  0  0  0  0  0  0
   16.0790   -4.5680   14.6530 N   0  0  0  0  0  0  0  0  0  0  0  0
   15.9710   -5.9970   22.4070 N   0  0  0  0  0  1  0  0  0  0  0  0
   20.0020   -8.6220   16.8140 N   0  0  0  0  0  1  0  0  0  0  0  0
   17.6080   -6.7990   20.5900 N   0  0  0  0  0  5  0  0  0  0  0  0
   18.8970   -7.5670   18.9090 N   0  0  0  0  0  6  0  0  0  0  0  0
   16.7120   -6.9400   18.6920 N   0  0  0  0  0  7  0  0  0  0  0  0
   16.9150   -6.9940   18.3990 N   0  0  0  0  0  6  0  0  0  0  0  0
   15.6160   -4.8510   17.0600 O   0  0  0  0  0  5  0  0  0  0  0  0
   15.7660   -4.9170   17.0120 O   0  0  0  0  0  5  0  0  0  0  0  0
  1  2  1  0
  1 17  1  0
  1 18  1  0
  1 31  1  0
  2 17  1  0
  2 18  1  0
  2 32  1  0
  3  4  1  0
  3  5  1  0
  3  6  1  0
  3 11  1  0
  3 12  1  0
  3 35  1  0
  3 36  1  0
  3 41  1  0
  3 42  1  0
  4  5  1  0
  4  6  1  0
  4 11  1  0
  4 12  1  0
  4 35  1  0
  4 36  1  0
  4 41  1  0
  4 42  1  0
  5  6  1  0
  5  7  1  0
  5  8  1  0
  5 51  1  0
  5 52  1  0
  6  7  1  0
  6  8  1  0
  6 51  1  0
  6 52  1  0
  7  8  1  0
  7 49  1  0
  8 49  1  0
  8 50  1  0
  9 10  1  0
  9 41  1  0
  9 42  1  0
  9 43  1  0
  9 44  1  0
  9 51  1  0
  9 52  1  0
 10 41  1  0
 10 42  1  0
 10 43  1  0
 10 44  1  0
 10 51  1  0
 10 52  1  0
 11 12  1  0
 11 13  1  0
 11 14  1  0
 11 23  1  0
 11 24  1  0
 12 13  1  0
 12 14  1  0
 12 23  1  0
 12 24  1  0
 13 14  1  0
 13 15  1  0
 13 16  1  0
 14 15  1  0
 14 16  1  0
 15 16  1  0
 15 19  1  0
 15 20  1  0
 16 19  1  0
 16 20  1  0
 17 27  1  0
 17 31  1  0
 18 28  1  0
 18 32  1  0
 18 48  1  0
 19 20  1  0
 19 21  1  0
 19 22  1  0
 19 39  1  0
 19 40  1  0
 20 21  1  0
 20 22  1  0
 20 39  1  0
 20 40  1  0
 21 22  1  0
 21 23  1  0
 21 24  1  0
 22 23  1  0
 22 24  1  0
 23 24  1  0
 23 37  1  0
 23 38  1  0
 24 37  1  0
 24 38  1  0
 25 27  1  0
 25 31  1  0
 25 45  1  0
 25 47  1  0
 26 28  1  0
 26 46  1  0
 26 48  1  0
 27 29  1  0
 27 30  1  0
 27 31  1  0
 27 47  1  0
 28 29  1  0
 28 30  1  0
 28 32  1  0
 28 48  1  0
 29 30  1  0
 29 47  1  0
 29 48  1  0
 29 49  1  0
 29 50  1  0
 30 47  1  0
 30 48  1  0
 30 49  1  0
 30 50  1  0
 31 47  1  0
 32 48  1  0
 33 34  1  0
 33 35  1  0
 33 36  1  0
 33 49  1  0
 33 50  1  0
 34 35  1  0
 34 36  1  0
 34 49  1  0
 34 50  1  0
 35 36  1  0
 37 38  1  0
 39 40  1  0
 41 42  1  0
 43 44  1  0
 49 50  1  0
 51 52  1  0
M  END
$$$$
