4lc7_A_1WP_502
     RDKit          3D

 23 26  0  0  0  0  0  0  0  0999 V2000
   23.3990   14.3510    8.6590 C   0  0  0  0  0  0  0  0  0  0  0  0
   24.9300   14.2910    8.7900 C   0  0  0  0  0  3  0  0  0  0  0  0
   25.6830   13.1500    8.4120 C   0  0  0  0  0  2  0  0  0  0  0  0
   27.0940   13.1510    8.5290 C   0  0  0  0  0  2  0  0  0  0  0  0
   27.7840   14.2870    9.0150 C   0  0  0  0  0  2  0  0  0  0  0  0
   27.0430   15.4350    9.3970 C   0  0  0  0  0  3  0  0  0  0  0  0
   25.6270   15.4240    9.2770 C   0  0  0  0  0  2  0  0  0  0  0  0
   27.6530   16.6290    9.8410 C   0  0  0  0  0  3  0  0  0  0  0  0
   28.8560   17.0950    9.2500 C   0  0  0  0  0  2  0  0  0  0  0  0
   23.0810   15.4640    7.6210 C   0  0  0  0  0  3  0  0  0  0  0  0
   28.8500   19.0540   10.5340 C   0  0  0  0  0  2  0  0  0  0  0  0
   27.6330   18.6900   11.1560 C   0  0  0  0  0  3  0  0  0  0  0  0
   27.0230   17.4630   10.8020 C   0  0  0  0  0  2  0  0  0  0  0  0
   22.3370   14.9530    6.3690 C   0  0  0  0  0  2  0  0  0  0  0  0
   21.1360   14.0350    6.6780 C   0  0  0  0  0  2  0  0  0  0  0  0
   21.2390   13.1570    7.9510 C   0  0  0  0  0  2  0  0  0  0  0  0
   22.6990   12.9840    8.4510 C   0  0  0  0  0  2  0  0  0  0  0  0
   22.1350   15.9690    9.6210 C   0  0  0  0  0  3  0  0  0  0  0  0
   26.9220   19.7360   12.3100 Cl  0  0  0  0  0  0  0  0  0  0  0  0
   21.2820   16.5580   10.4490 N   0  0  0  0  0  1  0  0  0  0  0  0
   29.4360   18.2650    9.6100 N   0  0  0  0  0  2  0  0  0  0  0  0
   22.8160   14.8570    9.8820 N   0  0  0  0  0  2  0  0  0  0  0  0
   22.1390   16.3210    8.3110 O   0  0  0  0  0  0  0  0  0  0  0  0
  1  2  1  0
  1 10  1  0
  1 17  1  0
  1 22  1  0
  2  3  1  0
  2  7  1  0
  3  4  1  0
  4  5  1  0
  5  6  1  0
  6  7  1  0
  6  8  1  0
  8  9  1  0
  8 13  1  0
  9 21  1  0
 10 14  1  0
 10 23  1  0
 11 12  1  0
 11 21  1  0
 12 13  1  0
 12 19  1  0
 14 15  1  0
 15 16  1  0
 16 17  1  0
 18 20  1  0
 18 22  1  0
 18 23  1  0
M  END
$$$$
