4lxa_A_1YS_501
     RDKit          3D

 39 41  0  0  0  0  0  0  0  0999 V2000
   30.8240   10.4630   15.2800 C   0  0  0  0  0  3  0  0  0  0  0  0
   31.4810    9.2900   14.8540 C   0  0  0  0  0  2  0  0  0  0  0  0
   31.8560    8.3020   15.7970 C   0  0  0  0  0  3  0  0  0  0  0  0
   31.5770    8.5040   17.1660 C   0  0  0  0  0  2  0  0  0  0  0  0
   32.5420    6.9950   15.3660 C   0  0  0  0  0  2  0  0  0  0  0  0
   31.4750    6.0780   14.6590 C   0  0  0  0  0  3  0  0  0  0  0  0
   28.4790    9.2130   19.9050 C   0  0  0  0  0  0  0  0  0  0  0  0
   32.0500    4.6750   14.2880 C   0  0  0  0  0  3  0  0  0  0  0  0
   31.0760    3.8250   13.4110 C   0  0  0  0  0  3  0  0  0  0  0  0
   29.6510    3.6340   14.0210 C   0  0  0  0  0  2  0  0  0  0  0  0
   30.1260    5.9160   15.4450 C   0  0  0  0  0  2  0  0  0  0  0  0
   31.1730    1.6580   11.9410 C   0  0  0  0  0  2  0  0  0  0  0  0
   31.0220    2.4820   10.6450 C   0  0  0  0  0  3  0  0  0  0  0  0
   32.1710    2.9440    9.9630 C   0  0  0  0  0  2  0  0  0  0  0  0
   32.0950    3.7170    8.7650 C   0  0  0  0  0  3  0  0  0  0  0  0
   30.7830    4.0080    8.2820 C   0  0  0  0  0  2  0  0  0  0  0  0
   29.6170    3.5520    8.9480 C   0  0  0  0  0  2  0  0  0  0  0  0
   29.7330    2.7880   10.1300 C   0  0  0  0  0  2  0  0  0  0  0  0
   33.4180    4.1930    8.0650 C   0  0  0  0  0  0  0  0  0  0  0  0
   34.3730    2.9820    7.8190 C   0  0  0  0  0  1  0  0  0  0  0  0
   29.9840    8.8470   19.7250 C   0  0  0  0  0  3  0  0  0  0  0  0
   33.2530    4.8860    6.6710 C   0  0  0  0  0  1  0  0  0  0  0  0
   34.1470    5.2380    8.9640 C   0  0  0  0  0  1  0  0  0  0  0  0
   30.8150    8.6840   21.0270 C   0  0  0  0  0  0  0  0  0  0  0  0
   30.9180    9.6780   17.5980 C   0  0  0  0  0  3  0  0  0  0  0  0
   30.5380   10.6680   16.6570 C   0  0  0  0  0  3  0  0  0  0  0  0
   27.8630    9.2250   18.6900 F   0  0  0  0  0  0  0  0  0  0  0  0
   28.3380   10.4390   20.4650 F   0  0  0  0  0  0  0  0  0  0  0  0
   27.8300    8.2970   20.6690 F   0  0  0  0  0  0  0  0  0  0  0  0
   30.4750   11.3660   14.3710 F   0  0  0  0  0  0  0  0  0  0  0  0
   30.2270    7.8520   21.9210 F   0  0  0  0  0  0  0  0  0  0  0  0
   32.0320    8.1730   20.7170 F   0  0  0  0  0  0  0  0  0  0  0  0
   31.0090    9.9060   21.5770 F   0  0  0  0  0  0  0  0  0  0  0  0
   31.7170    2.5270   13.0340 N   0  0  0  0  0  2  0  0  0  0  0  0
   29.9050   11.7950   17.0740 N   0  0  0  0  0  1  0  0  0  0  0  0
   28.8150    6.0360   13.1660 O   0  0  0  0  0  1  0  0  0  0  0  0
   33.2770    4.8500   13.5560 O   0  0  0  0  0  1  0  0  0  0  0  0
   30.6190    9.8800   18.9450 O   0  0  0  0  0  0  0  0  0  0  0  0
   28.8500    5.1960   14.4150 S   0  0  0  0  0  3  0  0  0  0  0  0
  1  2  1  0
  1 26  1  0
  1 30  1  0
  2  3  1  0
  3  4  1  0
  3  5  1  0
  4 25  1  0
  5  6  1  0
  6  8  1  0
  6 11  1  0
  7 21  1  0
  7 27  1  0
  7 28  1  0
  7 29  1  0
  8  9  1  0
  8 37  1  0
  9 10  1  0
  9 34  1  0
 10 39  1  0
 11 39  1  0
 12 13  1  0
 12 34  1  0
 13 14  1  0
 13 18  1  0
 14 15  1  0
 15 16  1  0
 15 19  1  0
 16 17  1  0
 17 18  1  0
 19 20  1  0
 19 22  1  0
 19 23  1  0
 21 24  1  0
 21 38  1  0
 24 31  1  0
 24 32  1  0
 24 33  1  0
 25 26  1  0
 25 38  1  0
 26 35  1  0
 36 39  1  0
M  END
$$$$
