4lxa_B_1YS_502
     RDKit          3D

 39 41  0  0  0  0  0  0  0  0999 V2000
   13.6090    4.7090  -16.7270 C   0  0  0  0  0  3  0  0  0  0  0  0
   14.0610    5.9840  -17.1480 C   0  0  0  0  0  2  0  0  0  0  0  0
   15.3530    6.4410  -16.7690 C   0  0  0  0  0  3  0  0  0  0  0  0
   16.1740    5.6130  -15.9630 C   0  0  0  0  0  2  0  0  0  0  0  0
   15.8970    7.8090  -17.2250 C   0  0  0  0  0  2  0  0  0  0  0  0
   16.3250    7.7200  -18.7340 C   0  0  0  0  0  3  0  0  0  0  0  0
   17.9980    1.8100  -15.7520 C   0  0  0  0  0  0  0  0  0  0  0  0
   17.0000    9.0240  -19.2750 C   0  0  0  0  0  3  0  0  0  0  0  0
   17.2010    9.0000  -20.8210 C   0  0  0  0  0  3  0  0  0  0  0  0
   17.9820    7.7650  -21.3680 C   0  0  0  0  0  2  0  0  0  0  0  0
   17.2180    6.4830  -19.0820 C   0  0  0  0  0  2  0  0  0  0  0  0
   17.8020   10.6810  -22.7310 C   0  0  0  0  0  2  0  0  0  0  0  0
   16.3690   10.6300  -23.2950 C   0  0  0  0  0  3  0  0  0  0  0  0
   15.3880   11.5340  -22.8180 C   0  0  0  0  0  2  0  0  0  0  0  0
   14.0440   11.5280  -23.2990 C   0  0  0  0  0  3  0  0  0  0  0  0
   13.7340   10.5560  -24.2980 C   0  0  0  0  0  2  0  0  0  0  0  0
   14.7010    9.6450  -24.7910 C   0  0  0  0  0  2  0  0  0  0  0  0
   16.0220    9.6810  -24.2890 C   0  0  0  0  0  2  0  0  0  0  0  0
   13.0070   12.5530  -22.7200 C   0  0  0  0  0  0  0  0  0  0  0  0
   13.6070   13.9960  -22.6750 C   0  0  0  0  0  1  0  0  0  0  0  0
   17.8990    3.2350  -15.1260 C   0  0  0  0  0  3  0  0  0  0  0  0
   11.6690   12.6830  -23.5270 C   0  0  0  0  0  1  0  0  0  0  0  0
   12.6180   12.1160  -21.2700 C   0  0  0  0  0  1  0  0  0  0  0  0
   18.7740    3.4990  -13.8670 C   0  0  0  0  0  0  0  0  0  0  0  0
   15.7260    4.3360  -15.5450 C   0  0  0  0  0  3  0  0  0  0  0  0
   14.4390    3.8780  -15.9240 C   0  0  0  0  0  3  0  0  0  0  0  0
   17.2410    1.7580  -16.8790 F   0  0  0  0  0  0  0  0  0  0  0  0
   17.5270    0.8760  -14.8890 F   0  0  0  0  0  0  0  0  0  0  0  0
   19.2700    1.4930  -16.1200 F   0  0  0  0  0  0  0  0  0  0  0  0
   12.4030    4.2930  -17.0940 F   0  0  0  0  0  0  0  0  0  0  0  0
   20.0640    3.1280  -14.0470 F   0  0  0  0  0  0  0  0  0  0  0  0
   18.7630    4.8260  -13.5770 F   0  0  0  0  0  0  0  0  0  0  0  0
   18.2440    2.8470  -12.8020 F   0  0  0  0  0  0  0  0  0  0  0  0
   17.7610   10.3060  -21.2910 N   0  0  0  0  0  2  0  0  0  0  0  0
   14.0250    2.6510  -15.5140 N   0  0  0  0  0  1  0  0  0  0  0  0
   15.8140    6.1680  -21.2860 O   0  0  0  0  0  1  0  0  0  0  0  0
   16.1700   10.1580  -18.9570 O   0  0  0  0  0  1  0  0  0  0  0  0
   16.5200    3.4880  -14.7670 O   0  0  0  0  0  0  0  0  0  0  0  0
   17.2570    6.2060  -20.8430 S   0  0  0  0  0  3  0  0  0  0  0  0
  1  2  1  0
  1 26  1  0
  1 30  1  0
  2  3  1  0
  3  4  1  0
  3  5  1  0
  4 25  1  0
  5  6  1  0
  6  8  1  0
  6 11  1  0
  7 21  1  0
  7 27  1  0
  7 28  1  0
  7 29  1  0
  8  9  1  0
  8 37  1  0
  9 10  1  0
  9 34  1  0
 10 39  1  0
 11 39  1  0
 12 13  1  0
 12 34  1  0
 13 14  1  0
 13 18  1  0
 14 15  1  0
 15 16  1  0
 15 19  1  0
 16 17  1  0
 17 18  1  0
 19 20  1  0
 19 22  1  0
 19 23  1  0
 21 24  1  0
 21 38  1  0
 24 31  1  0
 24 32  1  0
 24 33  1  0
 25 26  1  0
 25 38  1  0
 26 35  1  0
 36 39  1  0
M  END
$$$$
