4lxk_B_1YT_502
     RDKit          3D

 38 40  0  0  0  0  0  0  0  0999 V2000
   13.5840    4.8690  -17.0760 C   0  0  0  0  0  3  0  0  0  0  0  0
   14.0730    6.1410  -17.4650 C   0  0  0  0  0  2  0  0  0  0  0  0
   15.3700    6.5600  -17.0550 C   0  0  0  0  0  3  0  0  0  0  0  0
   16.1540    5.7030  -16.2560 C   0  0  0  0  0  2  0  0  0  0  0  0
   15.9490    7.9250  -17.4800 C   0  0  0  0  0  2  0  0  0  0  0  0
   16.3330    7.9350  -19.0030 C   0  0  0  0  0  3  0  0  0  0  0  0
   18.7180    3.6040  -14.2380 C   0  0  0  0  0  0  0  0  0  0  0  0
   16.9890    9.2580  -19.5190 C   0  0  0  0  0  3  0  0  0  0  0  0
   17.1500    9.2770  -21.0720 C   0  0  0  0  0  3  0  0  0  0  0  0
   17.9700    8.0780  -21.6410 C   0  0  0  0  0  2  0  0  0  0  0  0
   17.2500    6.7220  -19.3760 C   0  0  0  0  0  2  0  0  0  0  0  0
   17.8070   10.9450  -22.9760 C   0  0  0  0  0  2  0  0  0  0  0  0
   16.3780   10.9130  -23.5510 C   0  0  0  0  0  3  0  0  0  0  0  0
   15.4090   11.8360  -23.0860 C   0  0  0  0  0  2  0  0  0  0  0  0
   14.0690   11.8560  -23.5760 C   0  0  0  0  0  3  0  0  0  0  0  0
   13.7540   10.8840  -24.5720 C   0  0  0  0  0  2  0  0  0  0  0  0
   14.7040    9.9510  -25.0530 C   0  0  0  0  0  2  0  0  0  0  0  0
   16.0230    9.9620  -24.5430 C   0  0  0  0  0  2  0  0  0  0  0  0
   13.0260   12.8950  -23.0270 C   0  0  0  0  0  0  0  0  0  0  0  0
   13.6570   14.3230  -23.0460 C   0  0  0  0  0  1  0  0  0  0  0  0
   17.8120    3.3060  -15.4560 C   0  0  0  0  0  3  0  0  0  0  0  0
   11.6810   12.9870  -23.8270 C   0  0  0  0  0  1  0  0  0  0  0  0
   12.6250   12.5460  -21.5520 C   0  0  0  0  0  1  0  0  0  0  0  0
   18.0070    1.8610  -15.9980 C   0  0  0  0  0  2  0  0  0  0  0  0
   17.3580    0.4080  -17.8080 C   0  0  0  0  0  1  0  0  0  0  0  0
   15.6690    4.4330  -15.8690 C   0  0  0  0  0  3  0  0  0  0  0  0
   14.3800    4.0100  -16.2770 C   0  0  0  0  0  3  0  0  0  0  0  0
   18.6320    4.9200  -13.9120 F   0  0  0  0  0  0  0  0  0  0  0  0
   20.0230    3.3130  -14.5000 F   0  0  0  0  0  0  0  0  0  0  0  0
   18.2730    2.8760  -13.1820 F   0  0  0  0  0  0  0  0  0  0  0  0
   12.3760    4.4740  -17.4620 F   0  0  0  0  0  0  0  0  0  0  0  0
   17.7930   10.5410  -21.5410 N   0  0  0  0  0  2  0  0  0  0  0  0
   13.9170    2.7910  -15.9040 N   0  0  0  0  0  1  0  0  0  0  0  0
   15.8430    6.4130  -21.5780 O   0  0  0  0  0  1  0  0  0  0  0  0
   16.1910   10.4040  -19.1860 O   0  0  0  0  0  1  0  0  0  0  0  0
   16.4410    3.5740  -15.0890 O   0  0  0  0  0  0  0  0  0  0  0  0
   17.1210    1.6490  -17.1160 O   0  0  0  0  0  0  0  0  0  0  0  0
   17.2810    6.4950  -21.1470 S   0  0  0  0  0  3  0  0  0  0  0  0
  1  2  1  0
  1 27  1  0
  1 31  1  0
  2  3  1  0
  3  4  1  0
  3  5  1  0
  4 26  1  0
  5  6  1  0
  6  8  1  0
  6 11  1  0
  7 21  1  0
  7 28  1  0
  7 29  1  0
  7 30  1  0
  8  9  1  0
  8 35  1  0
  9 10  1  0
  9 32  1  0
 10 38  1  0
 11 38  1  0
 12 13  1  0
 12 32  1  0
 13 14  1  0
 13 18  1  0
 14 15  1  0
 15 16  1  0
 15 19  1  0
 16 17  1  0
 17 18  1  0
 19 20  1  0
 19 22  1  0
 19 23  1  0
 21 24  1  0
 21 36  1  0
 24 37  1  0
 25 37  1  0
 26 27  1  0
 26 36  1  0
 27 33  1  0
 34 38  1  0
M  END
$$$$
