4lxm_B_1YU_501
     RDKit          3D

 39 41  0  0  0  0  0  0  0  0999 V2000
   13.5620    5.1480  -17.5140 C   0  0  0  0  0  3  0  0  0  0  0  0
   14.0240    6.4270  -17.9110 C   0  0  0  0  0  2  0  0  0  0  0  0
   15.3390    6.8410  -17.5630 C   0  0  0  0  0  3  0  0  0  0  0  0
   16.1690    5.9780  -16.8130 C   0  0  0  0  0  2  0  0  0  0  0  0
   15.9130    8.2020  -17.9900 C   0  0  0  0  0  2  0  0  0  0  0  0
   16.2630    8.2430  -19.5220 C   0  0  0  0  0  3  0  0  0  0  0  0
   17.9190    2.0940  -16.7610 C   0  0  0  0  0  0  0  0  0  0  0  0
   16.9820    9.5440  -20.0110 C   0  0  0  0  0  3  0  0  0  0  0  0
   17.2370    9.5690  -21.5520 C   0  0  0  0  0  3  0  0  0  0  0  0
   18.0170    8.3350  -22.1030 C   0  0  0  0  0  2  0  0  0  0  0  0
   17.0760    6.9770  -19.9590 C   0  0  0  0  0  2  0  0  0  0  0  0
   17.8150   11.2340  -23.4630 C   0  0  0  0  0  2  0  0  0  0  0  0
   16.3710   11.1550  -24.0010 C   0  0  0  0  0  3  0  0  0  0  0  0
   15.4000   12.0690  -23.5190 C   0  0  0  0  0  2  0  0  0  0  0  0
   14.0450   12.0610  -23.9560 C   0  0  0  0  0  3  0  0  0  0  0  0
   13.7040   11.0690  -24.9230 C   0  0  0  0  0  2  0  0  0  0  0  0
   14.6550   10.1450  -25.4220 C   0  0  0  0  0  2  0  0  0  0  0  0
   15.9950   10.1860  -24.9610 C   0  0  0  0  0  2  0  0  0  0  0  0
   13.0190   13.0990  -23.3800 C   0  0  0  0  0  0  0  0  0  0  0  0
   13.6290   14.5330  -23.4390 C   0  0  0  0  0  1  0  0  0  0  0  0
   17.8630    3.5280  -16.1570 C   0  0  0  0  0  3  0  0  0  0  0  0
   11.6480   13.1530  -24.1370 C   0  0  0  0  0  1  0  0  0  0  0  0
   12.6830   12.7710  -21.8880 C   0  0  0  0  0  1  0  0  0  0  0  0
   18.7970    3.7960  -14.9490 C   0  0  0  0  0  0  0  0  0  0  0  0
   15.7110    4.6990  -16.4200 C   0  0  0  0  0  3  0  0  0  0  0  0
   14.4020    4.2780  -16.7700 C   0  0  0  0  0  3  0  0  0  0  0  0
   19.1400    1.8470  -17.3080 F   0  0  0  0  0  0  0  0  0  0  0  0
   16.9970    1.9810  -17.7490 F   0  0  0  0  0  0  0  0  0  0  0  0
   17.6300    1.1590  -15.8210 F   0  0  0  0  0  0  0  0  0  0  0  0
   12.3350    4.7560  -17.8450 F   0  0  0  0  0  0  0  0  0  0  0  0
   20.0790    3.4470  -15.2320 F   0  0  0  0  0  0  0  0  0  0  0  0
   18.3560    3.1140  -13.8640 F   0  0  0  0  0  0  0  0  0  0  0  0
   18.7960    5.1180  -14.6360 F   0  0  0  0  0  0  0  0  0  0  0  0
   17.8340   10.8530  -22.0190 N   0  0  0  0  0  2  0  0  0  0  0  0
   13.9590    3.0530  -16.4000 N   0  0  0  0  0  1  0  0  0  0  0  0
   17.9790    5.6920  -22.0990 O   0  0  0  0  0  1  0  0  0  0  0  0
   16.2180   10.7330  -19.7270 O   0  0  0  0  0  1  0  0  0  0  0  0
   16.5290    3.8320  -15.6950 O   0  0  0  0  0  0  0  0  0  0  0  0
   17.0890    6.8460  -21.7390 S   0  0  0  0  0  3  0  0  0  0  0  0
  1  2  1  0
  1 26  1  0
  1 30  1  0
  2  3  1  0
  3  4  1  0
  3  5  1  0
  4 25  1  0
  5  6  1  0
  6  8  1  0
  6 11  1  0
  7 21  1  0
  7 27  1  0
  7 28  1  0
  7 29  1  0
  8  9  1  0
  8 37  1  0
  9 10  1  0
  9 34  1  0
 10 39  1  0
 11 39  1  0
 12 13  1  0
 12 34  1  0
 13 14  1  0
 13 18  1  0
 14 15  1  0
 15 16  1  0
 15 19  1  0
 16 17  1  0
 17 18  1  0
 19 20  1  0
 19 22  1  0
 19 23  1  0
 21 24  1  0
 21 38  1  0
 24 31  1  0
 24 32  1  0
 24 33  1  0
 25 26  1  0
 25 38  1  0
 26 35  1  0
 36 39  1  0
M  END
$$$$
