4r8y_B_3KO_502
     RDKit          3D

 30 33  0  0  0  0  0  0  0  0999 V2000
   19.4000   33.5060   55.1920 C   0  0  0  0  0  2  0  0  0  0  0  0
   23.7510   34.7740   56.2640 C   0  0  0  0  0  2  0  0  0  0  0  0
   15.8980   32.8510   53.9310 C   0  0  0  0  0  2  0  0  0  0  0  0
   18.4630   34.1210   53.0750 C   0  0  0  0  0  2  0  0  0  0  0  0
   20.2150   34.6570   54.6450 C   0  0  0  0  0  3  0  0  0  0  0  0
   20.5960   33.2850   59.3820 C   0  0  0  0  0  1  0  0  0  0  0  0
   19.8580   34.6990   53.1700 C   0  0  0  0  0  2  0  0  0  0  0  0
   24.4330   34.6800   57.6410 C   0  0  0  0  0  2  0  0  0  0  0  0
   21.0510   35.4430   58.1530 C   0  0  0  0  0  3  0  0  0  0  0  0
   14.9480   33.8160   54.6170 C   0  0  0  0  0  3  0  0  0  0  0  0
   25.8870   35.1330   57.6230 C   0  0  0  0  0  3  0  0  0  0  0  0
   14.1010   33.2510   55.7270 C   0  0  0  0  0  2  0  0  0  0  0  0
   15.4790   35.1540   55.0770 C   0  0  0  0  0  2  0  0  0  0  0  0
   26.7660   34.0490   57.0020 C   0  0  0  0  0  2  0  0  0  0  0  0
   26.2850   35.3080   59.0930 C   0  0  0  0  0  2  0  0  0  0  0  0
   27.7440   35.7290   59.2140 C   0  0  0  0  0  2  0  0  0  0  0  0
   28.2500   34.3720   57.1240 C   0  0  0  0  0  2  0  0  0  0  0  0
   14.4350   35.6690   56.0420 C   0  0  0  0  0  2  0  0  0  0  0  0
   13.5810   34.4810   56.4460 C   0  0  0  0  0  2  0  0  0  0  0  0
   21.8060   33.5120   57.2250 C   0  0  0  0  0  3  0  0  0  0  0  0
   28.6550   34.6970   58.5590 C   0  0  0  0  0  2  0  0  0  0  0  0
   22.2300   34.6410   56.3100 C   0  0  0  0  0  0  0  0  0  0  0  0
   17.1810   32.6000   54.6700 C   0  0  0  0  0  3  0  0  0  0  0  0
   21.7050   34.4740   54.8670 C   0  0  0  0  0  2  0  0  0  0  0  0
   21.1280   34.0730   58.2800 N   0  0  0  0  0  0  0  0  0  0  0  0
   21.6570   35.7940   56.9730 N   0  0  0  0  0  2  0  0  0  0  0  0
   18.2480   33.4250   54.3300 N   0  0  0  0  0  0  0  0  0  0  0  0
   20.5320   36.2400   59.0380 N   0  0  0  0  0  1  0  0  0  0  0  0
   22.0560   32.3320   57.0490 O   0  0  0  0  0  1  0  0  0  0  0  0
   17.2320   31.7280   55.5260 O   0  0  0  0  0  1  0  0  0  0  0  0
  1  5  1  0
  1 27  1  0
  2  8  1  0
  2 22  1  0
  3 10  1  0
  3 23  1  0
  4  7  1  0
  4 27  1  0
  5  7  1  0
  5 24  1  0
  6 25  1  0
  8 11  1  0
  9 25  1  0
  9 26  1  0
  9 28  1  0
 10 12  1  0
 10 13  1  0
 11 14  1  0
 11 15  1  0
 12 19  1  0
 13 18  1  0
 14 17  1  0
 15 16  1  0
 16 21  1  0
 17 21  1  0
 18 19  1  0
 20 22  1  0
 20 25  1  0
 20 29  1  0
 22 24  1  0
 22 26  1  0
 23 27  1  0
 23 30  1  0
M  END
$$$$
