4r8y_A_3KO_501
     RDKit          3D

 30 33  0  0  0  0  0  0  0  0999 V2000
   23.8540   11.8610   20.8720 C   0  0  0  0  0  2  0  0  0  0  0  0
   19.5070   10.6710   21.9240 C   0  0  0  0  0  2  0  0  0  0  0  0
   27.3680   12.5050   19.7150 C   0  0  0  0  0  2  0  0  0  0  0  0
   24.8530   11.1820   18.8130 C   0  0  0  0  0  2  0  0  0  0  0  0
   23.0720   10.6680   20.3740 C   0  0  0  0  0  3  0  0  0  0  0  0
   22.5960   12.1620   25.0650 C   0  0  0  0  0  1  0  0  0  0  0  0
   23.4940   10.5290   18.9250 C   0  0  0  0  0  2  0  0  0  0  0  0
   18.8030   10.7150   23.2830 C   0  0  0  0  0  2  0  0  0  0  0  0
   22.1780    9.9800   23.8510 C   0  0  0  0  0  3  0  0  0  0  0  0
   28.3340   11.5410   20.3960 C   0  0  0  0  0  3  0  0  0  0  0  0
   17.3260   10.3730   23.1960 C   0  0  0  0  0  3  0  0  0  0  0  0
   27.8310   10.1580   20.7440 C   0  0  0  0  0  2  0  0  0  0  0  0
   29.0360   12.0870   21.6110 C   0  0  0  0  0  2  0  0  0  0  0  0
   16.5120   11.4720   22.5020 C   0  0  0  0  0  2  0  0  0  0  0  0
   16.8070   10.1090   24.6030 C   0  0  0  0  0  2  0  0  0  0  0  0
   15.3340    9.7220   24.5930 C   0  0  0  0  0  2  0  0  0  0  0  0
   15.0300   11.0980   22.4530 C   0  0  0  0  0  2  0  0  0  0  0  0
   29.4760   10.8680   22.3950 C   0  0  0  0  0  2  0  0  0  0  0  0
   28.7030    9.6810   21.8840 C   0  0  0  0  0  2  0  0  0  0  0  0
   21.4360   11.8940   22.8770 C   0  0  0  0  0  3  0  0  0  0  0  0
   14.4790   10.7290   23.8270 C   0  0  0  0  0  2  0  0  0  0  0  0
   21.0300   10.7540   21.9740 C   0  0  0  0  0  0  0  0  0  0  0  0
   26.0730   12.7510   20.4320 C   0  0  0  0  0  3  0  0  0  0  0  0
   21.5700   10.8880   20.5420 C   0  0  0  0  0  2  0  0  0  0  0  0
   22.0820   11.3520   23.9660 N   0  0  0  0  0  0  0  0  0  0  0  0
   21.6030    9.6050   22.6650 N   0  0  0  0  0  2  0  0  0  0  0  0
   24.9860   11.9890   20.0100 N   0  0  0  0  0  0  0  0  0  0  0  0
   22.7160    9.2040   24.7390 N   0  0  0  0  0  1  0  0  0  0  0  0
   21.1810   13.0630   22.6560 O   0  0  0  0  0  1  0  0  0  0  0  0
   25.9960   13.5920   21.3220 O   0  0  0  0  0  1  0  0  0  0  0  0
  1  5  1  0
  1 27  1  0
  2  8  1  0
  2 22  1  0
  3 10  1  0
  3 23  1  0
  4  7  1  0
  4 27  1  0
  5  7  1  0
  5 24  1  0
  6 25  1  0
  8 11  1  0
  9 25  1  0
  9 26  1  0
  9 28  1  0
 10 12  1  0
 10 13  1  0
 11 14  1  0
 11 15  1  0
 12 19  1  0
 13 18  1  0
 14 17  1  0
 15 16  1  0
 16 21  1  0
 17 21  1  0
 18 19  1  0
 20 22  1  0
 20 25  1  0
 20 29  1  0
 22 24  1  0
 22 26  1  0
 23 27  1  0
 23 30  1  0
M  END
$$$$
