4r91_B_3KT_502
     RDKit          3D

 29 32  0  0  0  0  0  0  0  0999 V2000
   21.1820   35.4840   58.1550 C   0  0  0  0  0  3  0  0  0  0  0  0
   20.6780   33.3390   59.3780 C   0  0  0  0  0  1  0  0  0  0  0  0
   18.2800   34.3320   54.6300 C   0  0  0  0  0  3  0  0  0  0  0  0
   20.7430   34.8240   54.5120 C   0  0  0  0  0  3  0  0  0  0  0  0
   19.6510   34.0360   55.2230 C   0  0  0  0  0  2  0  0  0  0  0  0
   24.6730   34.7770   57.9050 C   0  0  0  0  0  2  0  0  0  0  0  0
   15.8430   33.6970   54.9320 C   0  0  0  0  0  3  0  0  0  0  0  0
   26.1240   35.2470   57.9160 C   0  0  0  0  0  3  0  0  0  0  0  0
   19.2820   34.7490   52.4260 C   0  0  0  0  0  2  0  0  0  0  0  0
   18.2500   33.8930   53.1620 C   0  0  0  0  0  2  0  0  0  0  0  0
   20.6720   34.5230   53.0210 C   0  0  0  0  0  2  0  0  0  0  0  0
   15.3570   35.1240   54.8730 C   0  0  0  0  0  2  0  0  0  0  0  0
   14.9990   33.0020   55.9740 C   0  0  0  0  0  2  0  0  0  0  0  0
   27.0300   34.2310   57.2100 C   0  0  0  0  0  2  0  0  0  0  0  0
   26.5650   35.4170   59.3660 C   0  0  0  0  0  2  0  0  0  0  0  0
   28.0310   35.8280   59.4940 C   0  0  0  0  0  2  0  0  0  0  0  0
   13.9710   35.1470   55.4700 C   0  0  0  0  0  2  0  0  0  0  0  0
   13.7000   33.7570   55.9870 C   0  0  0  0  0  2  0  0  0  0  0  0
   28.4820   34.7070   57.3000 C   0  0  0  0  0  2  0  0  0  0  0  0
   28.9480   34.8690   58.7450 C   0  0  0  0  0  2  0  0  0  0  0  0
   22.0520   33.5660   57.3250 C   0  0  0  0  0  3  0  0  0  0  0  0
   22.5260   34.6900   56.4350 C   0  0  0  0  0  0  0  0  0  0  0  0
   22.1480   34.4490   54.9660 C   0  0  0  0  0  2  0  0  0  0  0  0
   24.0450   34.7890   56.5060 C   0  0  0  0  0  2  0  0  0  0  0  0
   17.2420   33.6340   55.4570 N   0  0  0  0  0  2  0  0  0  0  0  0
   21.3200   34.1400   58.3380 N   0  0  0  0  0  0  0  0  0  0  0  0
   20.5150   36.2620   58.9440 N   0  0  0  0  0  1  0  0  0  0  0  0
   21.8780   35.8440   57.0420 N   0  0  0  0  0  2  0  0  0  0  0  0
   22.3460   32.3950   57.1920 O   0  0  0  0  0  1  0  0  0  0  0  0
  1 26  1  0
  1 27  1  0
  1 28  1  0
  2 26  1  0
  3  5  1  0
  3 10  1  0
  3 25  1  0
  4  5  1  0
  4 11  1  0
  4 23  1  0
  6  8  1  0
  6 24  1  0
  7 12  1  0
  7 13  1  0
  7 25  1  0
  8 14  1  0
  8 15  1  0
  9 10  1  0
  9 11  1  0
 12 17  1  0
 13 18  1  0
 14 19  1  0
 15 16  1  0
 16 20  1  0
 17 18  1  0
 19 20  1  0
 21 22  1  0
 21 26  1  0
 21 29  1  0
 22 23  1  0
 22 24  1  0
 22 28  1  0
M  END
$$$$
