4r91_A_3KT_502
     RDKit          3D

 29 32  0  0  0  0  0  0  0  0999 V2000
   22.0180    9.8910   24.1130 C   0  0  0  0  0  3  0  0  0  0  0  0
   22.5810   12.0080   25.3070 C   0  0  0  0  0  1  0  0  0  0  0  0
   24.9890   10.9550   20.6120 C   0  0  0  0  0  3  0  0  0  0  0  0
   22.5380   10.5100   20.4660 C   0  0  0  0  0  3  0  0  0  0  0  0
   23.6260   11.3260   21.1670 C   0  0  0  0  0  2  0  0  0  0  0  0
   18.5540   10.6240   23.7540 C   0  0  0  0  0  2  0  0  0  0  0  0
   27.4260   11.6000   20.9710 C   0  0  0  0  0  3  0  0  0  0  0  0
   17.0940   10.1950   23.7480 C   0  0  0  0  0  3  0  0  0  0  0  0
   23.9940   10.5510   18.3860 C   0  0  0  0  0  2  0  0  0  0  0  0
   25.0620   11.3430   19.1340 C   0  0  0  0  0  2  0  0  0  0  0  0
   22.6040   10.8020   18.9710 C   0  0  0  0  0  2  0  0  0  0  0  0
   27.8730   10.1460   20.8780 C   0  0  0  0  0  2  0  0  0  0  0  0
   28.2620   12.2710   22.0340 C   0  0  0  0  0  2  0  0  0  0  0  0
   16.1860   11.2190   23.0640 C   0  0  0  0  0  2  0  0  0  0  0  0
   16.6510    9.9690   25.1890 C   0  0  0  0  0  2  0  0  0  0  0  0
   15.1850    9.5510   25.2970 C   0  0  0  0  0  2  0  0  0  0  0  0
   28.9370    9.9160   21.9190 C   0  0  0  0  0  2  0  0  0  0  0  0
   29.1900   11.2290   22.6030 C   0  0  0  0  0  2  0  0  0  0  0  0
   14.7400   10.7320   23.1180 C   0  0  0  0  0  2  0  0  0  0  0  0
   14.2710   10.5090   24.5490 C   0  0  0  0  0  2  0  0  0  0  0  0
   21.1820   11.8200   23.2630 C   0  0  0  0  0  3  0  0  0  0  0  0
   20.7250   10.6920   22.3600 C   0  0  0  0  0  0  0  0  0  0  0  0
   21.1330   10.9090   20.9060 C   0  0  0  0  0  2  0  0  0  0  0  0
   19.2100   10.5510   22.3800 C   0  0  0  0  0  2  0  0  0  0  0  0
   26.0170   11.6560   21.4630 N   0  0  0  0  0  2  0  0  0  0  0  0
   21.8810   11.2350   24.2880 N   0  0  0  0  0  0  0  0  0  0  0  0
   22.6900    9.1440   24.9190 N   0  0  0  0  0  1  0  0  0  0  0  0
   21.3420    9.5230   22.9820 N   0  0  0  0  0  2  0  0  0  0  0  0
   20.9090   13.0080   23.1500 O   0  0  0  0  0  1  0  0  0  0  0  0
  1 26  1  0
  1 27  1  0
  1 28  1  0
  2 26  1  0
  3  5  1  0
  3 10  1  0
  3 25  1  0
  4  5  1  0
  4 11  1  0
  4 23  1  0
  6  8  1  0
  6 24  1  0
  7 12  1  0
  7 13  1  0
  7 25  1  0
  8 14  1  0
  8 15  1  0
  9 10  1  0
  9 11  1  0
 12 17  1  0
 13 18  1  0
 14 19  1  0
 15 16  1  0
 16 20  1  0
 17 18  1  0
 19 20  1  0
 21 22  1  0
 21 26  1  0
 21 29  1  0
 22 23  1  0
 22 24  1  0
 22 28  1  0
M  END
$$$$
