4r92_B_3KU_503
     RDKit          3D

 32 35  0  0  0  0  0  0  0  0999 V2000
   21.9720   33.5360   57.2650 C   0  0  0  0  0  3  0  0  0  0  0  0
   26.0610   35.3090   57.6710 C   0  0  0  0  0  3  0  0  0  0  0  0
   19.8650   33.2040   53.9140 C   0  0  0  0  0  2  0  0  0  0  0  0
   18.3470   33.3140   53.7250 C   0  0  0  0  0  3  0  0  0  0  0  0
   17.8930   34.6630   53.1600 C   0  0  0  0  0  2  0  0  0  0  0  0
   18.4200   35.7920   54.0280 C   0  0  0  0  0  2  0  0  0  0  0  0
   19.9510   35.7170   54.0900 C   0  0  0  0  0  2  0  0  0  0  0  0
   26.4750   35.5860   59.1060 C   0  0  0  0  0  2  0  0  0  0  0  0
   27.9360   36.0040   59.2520 C   0  0  0  0  0  2  0  0  0  0  0  0
   28.8800   34.9930   58.6130 C   0  0  0  0  0  2  0  0  0  0  0  0
   28.4650   34.7150   57.1670 C   0  0  0  0  0  2  0  0  0  0  0  0
   22.4020   34.6370   56.3220 C   0  0  0  0  0  0  0  0  0  0  0  0
   27.0020   34.2830   57.0540 C   0  0  0  0  0  2  0  0  0  0  0  0
   17.4560   31.0560   53.6120 C   0  0  0  0  0  3  0  0  0  0  0  0
   21.8900   34.3770   54.9050 C   0  0  0  0  0  2  0  0  0  0  0  0
   20.7070   33.3920   59.4030 C   0  0  0  0  0  1  0  0  0  0  0  0
   16.9680   29.9740   52.7340 C   0  0  0  0  0  3  0  0  0  0  0  0
   16.6840   30.2050   51.4000 C   0  0  0  0  0  2  0  0  0  0  0  0
   16.2210   29.1400   50.6500 C   0  0  0  0  0  2  0  0  0  0  0  0
   16.7550   28.7170   53.2760 C   0  0  0  0  0  2  0  0  0  0  0  0
   16.2780   27.7300   52.4410 C   0  0  0  0  0  2  0  0  0  0  0  0
   21.1710   35.4880   58.0970 C   0  0  0  0  0  3  0  0  0  0  0  0
   23.9310   34.7400   56.3000 C   0  0  0  0  0  2  0  0  0  0  0  0
   20.3750   34.3970   54.7280 C   0  0  0  0  0  3  0  0  0  0  0  0
   24.6030   34.8280   57.6810 C   0  0  0  0  0  2  0  0  0  0  0  0
   20.5560   36.2900   58.8930 N   0  0  0  0  0  1  0  0  0  0  0  0
   17.8100   32.2180   52.9630 N   0  0  0  0  0  2  0  0  0  0  0  0
   21.8330   35.8160   56.9440 N   0  0  0  0  0  2  0  0  0  0  0  0
   16.0020   27.9090   51.1440 N   0  0  0  0  0  2  0  0  0  0  0  0
   21.3000   34.1360   58.3100 N   0  0  0  0  0  0  0  0  0  0  0  0
   17.5020   30.9090   54.8320 O   0  0  0  0  0  1  0  0  0  0  0  0
   22.2640   32.3610   57.1140 O   0  0  0  0  0  1  0  0  0  0  0  0
  1 12  1  0
  1 30  1  0
  1 32  1  0
  2  8  1  0
  2 13  1  0
  2 25  1  0
  3  4  1  0
  3 24  1  0
  4  5  1  0
  4 27  1  0
  5  6  1  0
  6  7  1  0
  7 24  1  0
  8  9  1  0
  9 10  1  0
 10 11  1  0
 11 13  1  0
 12 15  1  0
 12 23  1  0
 12 28  1  0
 14 17  1  0
 14 27  1  0
 14 31  1  0
 15 24  1  0
 16 30  1  0
 17 18  1  0
 17 20  1  0
 18 19  1  0
 19 29  1  0
 20 21  1  0
 21 29  1  0
 22 26  1  0
 22 28  1  0
 22 30  1  0
 23 25  1  0
M  END
$$$$
