4r92_A_3KU_501
     RDKit          3D

 32 35  0  0  0  0  0  0  0  0999 V2000
   21.3210   11.8320   23.2280 C   0  0  0  0  0  3  0  0  0  0  0  0
   17.2440   10.0750   23.5440 C   0  0  0  0  0  3  0  0  0  0  0  0
   23.3790   12.1880   19.8090 C   0  0  0  0  0  2  0  0  0  0  0  0
   24.8990   12.1330   19.6430 C   0  0  0  0  0  3  0  0  0  0  0  0
   25.3860   10.7850   19.1240 C   0  0  0  0  0  2  0  0  0  0  0  0
   24.9360    9.6890   20.0660 C   0  0  0  0  0  2  0  0  0  0  0  0
   23.4120    9.7060   20.1310 C   0  0  0  0  0  2  0  0  0  0  0  0
   16.8070    9.7490   24.9690 C   0  0  0  0  0  2  0  0  0  0  0  0
   15.3400    9.3440   25.0860 C   0  0  0  0  0  2  0  0  0  0  0  0
   14.4240   10.3670   24.4230 C   0  0  0  0  0  2  0  0  0  0  0  0
   14.8820   10.7200   23.0120 C   0  0  0  0  0  2  0  0  0  0  0  0
   20.9120   10.7230   22.2730 C   0  0  0  0  0  0  0  0  0  0  0  0
   16.3460   11.1520   22.9480 C   0  0  0  0  0  2  0  0  0  0  0  0
   25.7620   14.3990   19.4200 C   0  0  0  0  0  3  0  0  0  0  0  0
   21.4150   10.9760   20.8540 C   0  0  0  0  0  2  0  0  0  0  0  0
   22.6500   12.0160   25.3330 C   0  0  0  0  0  1  0  0  0  0  0  0
   26.3040   15.4100   18.5030 C   0  0  0  0  0  3  0  0  0  0  0  0
   26.4830   16.7050   18.9550 C   0  0  0  0  0  2  0  0  0  0  0  0
   27.0000   17.6220   18.0610 C   0  0  0  0  0  2  0  0  0  0  0  0
   26.6360   15.0760   17.2070 C   0  0  0  0  0  2  0  0  0  0  0  0
   27.1570   16.0680   16.4020 C   0  0  0  0  0  2  0  0  0  0  0  0
   22.1270    9.8900   24.0750 C   0  0  0  0  0  3  0  0  0  0  0  0
   19.3960   10.5560   22.2220 C   0  0  0  0  0  2  0  0  0  0  0  0
   22.9290   11.0380   20.6940 C   0  0  0  0  0  3  0  0  0  0  0  0
   18.6980   10.5200   23.5880 C   0  0  0  0  0  2  0  0  0  0  0  0
   22.7340    9.1050   24.9020 N   0  0  0  0  0  1  0  0  0  0  0  0
   25.3890   13.2070   18.8180 N   0  0  0  0  0  2  0  0  0  0  0  0
   21.4960    9.5480   22.9030 N   0  0  0  0  0  2  0  0  0  0  0  0
   27.3490   17.3360   16.7970 N   0  0  0  0  0  2  0  0  0  0  0  0
   22.0400   11.2540   24.2480 N   0  0  0  0  0  0  0  0  0  0  0  0
   25.6810   14.6460   20.6200 O   0  0  0  0  0  1  0  0  0  0  0  0
   20.9910   12.9990   23.1300 O   0  0  0  0  0  1  0  0  0  0  0  0
  1 12  1  0
  1 30  1  0
  1 32  1  0
  2  8  1  0
  2 13  1  0
  2 25  1  0
  3  4  1  0
  3 24  1  0
  4  5  1  0
  4 27  1  0
  5  6  1  0
  6  7  1  0
  7 24  1  0
  8  9  1  0
  9 10  1  0
 10 11  1  0
 11 13  1  0
 12 15  1  0
 12 23  1  0
 12 28  1  0
 14 17  1  0
 14 27  1  0
 14 31  1  0
 15 24  1  0
 16 30  1  0
 17 18  1  0
 17 20  1  0
 18 19  1  0
 19 29  1  0
 20 21  1  0
 21 29  1  0
 22 26  1  0
 22 28  1  0
 22 30  1  0
 23 25  1  0
M  END
$$$$
