4r93_B_779_502
     RDKit          3D

 33 36  0  0  0  0  0  0  0  0999 V2000
   21.8820   33.4700   57.3740 C   0  0  0  0  0  3  0  0  0  0  0  0
   25.9740   35.2300   57.6880 C   0  0  0  0  0  3  0  0  0  0  0  0
   19.7700   33.3920   53.7900 C   0  0  0  0  0  2  0  0  0  0  0  0
   18.2400   33.3720   53.6400 C   0  0  0  0  0  3  0  0  0  0  0  0
   17.6610   34.7830   53.4820 C   0  0  0  0  0  2  0  0  0  0  0  0
   18.1020   35.6980   54.6180 C   0  0  0  0  0  2  0  0  0  0  0  0
   19.6290   35.7380   54.6530 C   0  0  0  0  0  2  0  0  0  0  0  0
   26.4310   35.4620   59.1240 C   0  0  0  0  0  2  0  0  0  0  0  0
   27.9020   35.8550   59.2240 C   0  0  0  0  0  2  0  0  0  0  0  0
   28.7900   34.7900   58.5930 C   0  0  0  0  0  2  0  0  0  0  0  0
   28.3510   34.5380   57.1580 C   0  0  0  0  0  2  0  0  0  0  0  0
   22.2770   34.5970   56.4460 C   0  0  0  0  0  0  0  0  0  0  0  0
   26.8700   34.1720   57.0480 C   0  0  0  0  0  2  0  0  0  0  0  0
   17.1870   31.3440   52.7510 C   0  0  0  0  0  3  0  0  0  0  0  0
   21.7090   34.4080   55.0280 C   0  0  0  0  0  2  0  0  0  0  0  0
   20.6030   33.2520   59.4900 C   0  0  0  0  0  1  0  0  0  0  0  0
   16.3050   29.4500   51.3730 C   0  0  0  0  0  3  0  0  0  0  0  0
   15.9350   29.1050   50.0880 C   0  0  0  0  0  2  0  0  0  0  0  0
   15.4300   27.8410   49.8270 C   0  0  0  0  0  2  0  0  0  0  0  0
   15.3240   26.9090   50.8420 C   0  0  0  0  0  2  0  0  0  0  0  0
   15.7010   27.2490   52.1260 C   0  0  0  0  0  2  0  0  0  0  0  0
   16.1780   28.5210   52.3950 C   0  0  0  0  0  2  0  0  0  0  0  0
   21.1080   35.4110   58.2900 C   0  0  0  0  0  3  0  0  0  0  0  0
   23.8010   34.7120   56.3780 C   0  0  0  0  0  2  0  0  0  0  0  0
   20.1910   34.3440   54.9020 C   0  0  0  0  0  3  0  0  0  0  0  0
   24.5170   34.7400   57.7440 C   0  0  0  0  0  2  0  0  0  0  0  0
   20.5270   36.2100   59.1220 N   0  0  0  0  0  1  0  0  0  0  0  0
   17.8250   32.5500   52.5280 N   0  0  0  0  0  2  0  0  0  0  0  0
   16.7870   30.7640   51.5660 N   0  0  0  0  0  2  0  0  0  0  0  0
   21.7540   35.7700   57.1400 N   0  0  0  0  0  2  0  0  0  0  0  0
   21.2200   34.0470   58.4450 N   0  0  0  0  0  0  0  0  0  0  0  0
   17.0160   30.8770   53.8760 O   0  0  0  0  0  1  0  0  0  0  0  0
   22.1700   32.2930   57.2040 O   0  0  0  0  0  1  0  0  0  0  0  0
  1 12  1  0
  1 31  1  0
  1 33  1  0
  2  8  1  0
  2 13  1  0
  2 26  1  0
  3  4  1  0
  3 25  1  0
  4  5  1  0
  4 28  1  0
  5  6  1  0
  6  7  1  0
  7 25  1  0
  8  9  1  0
  9 10  1  0
 10 11  1  0
 11 13  1  0
 12 15  1  0
 12 24  1  0
 12 30  1  0
 14 28  1  0
 14 29  1  0
 14 32  1  0
 15 25  1  0
 16 31  1  0
 17 18  1  0
 17 22  1  0
 17 29  1  0
 18 19  1  0
 19 20  1  0
 20 21  1  0
 21 22  1  0
 23 27  1  0
 23 30  1  0
 23 31  1  0
 24 26  1  0
M  END
$$$$
