4r95_B_3KW_502
     RDKit          3D

 34 38  0  0  0  0  0  0  0  0999 V2000
   21.8640   33.5700   57.1750 C   0  0  0  0  0  3  0  0  0  0  0  0
   25.9440   35.3490   57.5660 C   0  0  0  0  0  3  0  0  0  0  0  0
   19.7530   33.4720   53.6990 C   0  0  0  0  0  2  0  0  0  0  0  0
   18.2220   33.4750   53.6060 C   0  0  0  0  0  3  0  0  0  0  0  0
   17.7030   34.8820   53.3310 C   0  0  0  0  0  2  0  0  0  0  0  0
   18.1030   35.7820   54.4800 C   0  0  0  0  0  2  0  0  0  0  0  0
   19.6310   35.8380   54.5020 C   0  0  0  0  0  2  0  0  0  0  0  0
   26.3410   35.5170   59.0200 C   0  0  0  0  0  2  0  0  0  0  0  0
   27.7830   35.9890   59.1870 C   0  0  0  0  0  2  0  0  0  0  0  0
   28.7670   35.0390   58.5250 C   0  0  0  0  0  2  0  0  0  0  0  0
   28.4050   34.7970   57.0600 C   0  0  0  0  0  2  0  0  0  0  0  0
   22.2990   34.7010   56.2720 C   0  0  0  0  0  0  0  0  0  0  0  0
   26.9320   34.4580   56.8330 C   0  0  0  0  0  2  0  0  0  0  0  0
   21.7300   34.5450   54.8630 C   0  0  0  0  0  2  0  0  0  0  0  0
   20.6580   33.3240   59.3170 C   0  0  0  0  0  1  0  0  0  0  0  0
   17.3250   31.4330   52.6600 C   0  0  0  0  0  3  0  0  0  0  0  0
   17.4370   30.7860   53.8760 C   0  0  0  0  0  2  0  0  0  0  0  0
   16.9170   29.5180   54.0150 C   0  0  0  0  0  2  0  0  0  0  0  0
   16.2160   29.6400   51.7360 C   0  0  0  0  0  3  0  0  0  0  0  0
   16.2960   28.9380   52.9290 C   0  0  0  0  0  3  0  0  0  0  0  0
   15.7710   27.6690   53.0510 C   0  0  0  0  0  2  0  0  0  0  0  0
   15.1480   27.0880   51.9650 C   0  0  0  0  0  2  0  0  0  0  0  0
   15.0530   27.7730   50.7690 C   0  0  0  0  0  2  0  0  0  0  0  0
   15.5890   29.0390   50.6640 C   0  0  0  0  0  2  0  0  0  0  0  0
   21.0810   35.4800   58.0660 C   0  0  0  0  0  3  0  0  0  0  0  0
   23.8230   34.8060   56.1950 C   0  0  0  0  0  2  0  0  0  0  0  0
   20.2070   34.4610   54.7710 C   0  0  0  0  0  3  0  0  0  0  0  0
   24.5230   34.7860   57.5580 C   0  0  0  0  0  2  0  0  0  0  0  0
   20.4760   36.2480   58.9010 N   0  0  0  0  0  1  0  0  0  0  0  0
   17.8400   32.7170   52.4390 N   0  0  0  0  0  2  0  0  0  0  0  0
   16.7290   30.8680   51.6050 N   0  0  0  0  0  2  0  0  0  0  0  0
   21.7410   35.8610   56.9400 N   0  0  0  0  0  2  0  0  0  0  0  0
   21.1620   34.1170   58.1970 N   0  0  0  0  0  0  0  0  0  0  0  0
   22.1200   32.3910   57.0130 O   0  0  0  0  0  1  0  0  0  0  0  0
  1 12  1  0
  1 33  1  0
  1 34  1  0
  2  8  1  0
  2 13  1  0
  2 28  1  0
  3  4  1  0
  3 27  1  0
  4  5  1  0
  4 30  1  0
  5  6  1  0
  6  7  1  0
  7 27  1  0
  8  9  1  0
  9 10  1  0
 10 11  1  0
 11 13  1  0
 12 14  1  0
 12 26  1  0
 12 32  1  0
 14 27  1  0
 15 33  1  0
 16 17  1  0
 16 30  1  0
 16 31  1  0
 17 18  1  0
 18 20  1  0
 19 20  1  0
 19 24  1  0
 19 31  1  0
 20 21  1  0
 21 22  1  0
 22 23  1  0
 23 24  1  0
 25 29  1  0
 25 32  1  0
 25 33  1  0
 26 28  1  0
M  END
$$$$
