4rce_A_3LN_501
     RDKit          3D

 31 35  0  0  0  0  0  0  0  0999 V2000
   72.1770   48.5610    6.7650 C   0  0  0  0  0  3  0  0  0  0  0  0
   68.8310   49.3460    8.5000 C   0  0  0  0  0  0  0  0  0  0  0  0
   69.2170   52.1190   11.0550 C   0  0  0  0  0  2  0  0  0  0  0  0
   67.9210   52.3240   11.4700 C   0  0  0  0  0  2  0  0  0  0  0  0
   66.8910   51.5690   10.9430 C   0  0  0  0  0  3  0  0  0  0  0  0
   67.1770   50.5960    9.9640 C   0  0  0  0  0  2  0  0  0  0  0  0
   72.6490   47.7010    5.7740 C   0  0  0  0  0  3  0  0  0  0  0  0
   68.3730   47.9530    8.9400 C   0  0  0  0  0  2  0  0  0  0  0  0
   67.2290   48.5610    7.0590 C   0  0  0  0  0  3  0  0  0  0  0  0
   73.0500   49.4050    7.4350 C   0  0  0  0  0  2  0  0  0  0  0  0
   64.6850   50.8950   11.4310 C   0  0  0  0  0  2  0  0  0  0  0  0
   63.4980   51.4220   12.2390 C   0  0  0  0  0  0  0  0  0  0  0  0
   63.8840   52.5590   13.2000 C   0  0  0  0  0  1  0  0  0  0  0  0
   73.7690   46.9020    6.0200 C   0  0  0  0  0  2  0  0  0  0  0  0
   73.5650   45.9520    3.9370 C   0  0  0  0  0  2  0  0  0  0  0  0
   72.0050   47.5560    4.5500 C   0  0  0  0  0  2  0  0  0  0  0  0
   72.5640   50.2390    8.4410 C   0  0  0  0  0  2  0  0  0  0  0  0
   62.4750   51.9380   11.2340 C   0  0  0  0  0  1  0  0  0  0  0  0
   62.9780   50.2420   13.0670 C   0  0  0  0  0  1  0  0  0  0  0  0
   71.2230   50.2230    8.7880 C   0  0  0  0  0  3  0  0  0  0  0  0
   70.3380   49.3650    8.1350 C   0  0  0  0  0  3  0  0  0  0  0  0
   70.8260   48.5420    7.1230 C   0  0  0  0  0  2  0  0  0  0  0  0
   69.5180   51.1640   10.1040 C   0  0  0  0  0  3  0  0  0  0  0  0
   68.4980   50.3920    9.5560 C   0  0  0  0  0  3  0  0  0  0  0  0
   67.9870   49.6250    7.3150 N   0  0  0  0  0  2  0  0  0  0  0  0
   66.3440   48.5000    6.0770 N   0  0  0  0  0  1  0  0  0  0  0  0
   74.1880   46.0560    5.0980 N   0  0  0  0  0  2  0  0  0  0  0  0
   72.4940   46.6900    3.6700 N   0  0  0  0  0  2  0  0  0  0  0  0
   65.6450   51.8950   11.4160 O   0  0  0  0  0  0  0  0  0  0  0  0
   67.4470   47.5160    7.9040 O   0  0  0  0  0  0  0  0  0  0  0  0
   70.8380   51.0610    9.7830 O   0  0  0  0  0  0  0  0  0  0  0  0
  1  7  1  0
  1 10  1  0
  1 22  1  0
  2  8  1  0
  2 21  1  0
  2 24  1  0
  2 25  1  0
  3  4  1  0
  3 23  1  0
  4  5  1  0
  5  6  1  0
  5 29  1  0
  6 24  1  0
  7 14  1  0
  7 16  1  0
  8 30  1  0
  9 25  1  0
  9 26  1  0
  9 30  1  0
 10 17  1  0
 11 12  1  0
 11 29  1  0
 12 13  1  0
 12 18  1  0
 12 19  1  0
 14 27  1  0
 15 27  1  0
 15 28  1  0
 16 28  1  0
 17 20  1  0
 20 21  1  0
 20 31  1  0
 21 22  1  0
 23 24  1  0
 23 31  1  0
M  END
$$$$
