4rrs_A_3UY_502
     RDKit          3D

 27 31  0  0  0  0  0  0  0  0999 V2000
   27.5370   14.5940    9.1390 C   0  0  0  0  0  2  0  0  0  0  0  0
   22.8600   13.4740    7.5260 C   0  0  0  0  0  3  0  0  0  0  0  0
   23.2890   14.7530    8.2620 C   0  0  0  0  0  0  0  0  0  0  0  0
   23.0020   16.0270    7.4340 C   0  0  0  0  0  2  0  0  0  0  0  0
   21.8640   16.1540    9.3910 C   0  0  0  0  0  3  0  0  0  0  0  0
   21.0720   12.3960    6.3640 C   0  0  0  0  0  2  0  0  0  0  0  0
   21.5090   11.0070    6.8940 C   0  0  0  0  0  2  0  0  0  0  0  0
   26.8040   15.7900    9.3670 C   0  0  0  0  0  3  0  0  0  0  0  0
   23.0330   10.9570    7.1650 C   0  0  0  0  0  2  0  0  0  0  0  0
   23.1140   11.8510    9.5280 C   0  0  0  0  0  1  0  0  0  0  0  0
   27.0070   17.6420   11.0170 C   0  0  0  0  0  3  0  0  0  0  0  0
   28.5570   19.3570   10.7440 C   0  0  0  0  0  2  0  0  0  0  0  0
   29.0370   18.7720    9.5470 C   0  0  0  0  0  2  0  0  0  0  0  0
   28.4600   17.5690    9.0710 C   0  0  0  0  0  2  0  0  0  0  0  0
   25.4180   15.8210    9.0760 C   0  0  0  0  0  2  0  0  0  0  0  0
   24.7740   14.6590    8.5840 C   0  0  0  0  0  3  0  0  0  0  0  0
   25.5050   13.4550    8.3610 C   0  0  0  0  0  3  0  0  0  0  0  0
   26.8940   13.4330    8.6430 C   0  0  0  0  0  2  0  0  0  0  0  0
   27.4190   16.9770    9.8340 C   0  0  0  0  0  3  0  0  0  0  0  0
   23.4790   12.1470    8.0450 C   0  0  0  0  0  0  0  0  0  0  0  0
   26.0120   17.1390   11.7670 F   0  0  0  0  0  0  0  0  0  0  0  0
   22.4670   14.9680    9.4340 N   0  0  0  0  0  2  0  0  0  0  0  0
   21.0790   16.7670   10.2980 N   0  0  0  0  0  1  0  0  0  0  0  0
   27.5540   18.8010   11.4490 N   0  0  0  0  0  2  0  0  0  0  0  0
   22.0630   16.7940    8.2060 O   0  0  0  0  0  0  0  0  0  0  0  0
   21.4480   13.4160    7.2950 O   0  0  0  0  0  0  0  0  0  0  0  0
   24.8970   12.3040    7.8940 O   0  0  0  0  0  0  0  0  0  0  0  0
  1  8  1  0
  1 18  1  0
  2  3  1  0
  2 20  1  0
  2 26  1  0
  3  4  1  0
  3 16  1  0
  3 22  1  0
  4 25  1  0
  5 22  1  0
  5 23  1  0
  5 25  1  0
  6  7  1  0
  6 26  1  0
  7  9  1  0
  8 15  1  0
  8 19  1  0
  9 20  1  0
 10 20  1  0
 11 19  1  0
 11 21  1  0
 11 24  1  0
 12 13  1  0
 12 24  1  0
 13 14  1  0
 14 19  1  0
 15 16  1  0
 16 17  1  0
 17 18  1  0
 17 27  1  0
 20 27  1  0
M  END
$$$$
