4wy1_A_3VO_4000
     RDKit          3D

 19 21  0  0  0  0  0  0  0  0999 V2000
   21.2230   40.2310   42.8020 C   0  0  0  0  0  2  0  0  0  0  0  0
   22.8160   36.6720   43.5100 C   0  0  0  0  0  2  0  0  0  0  0  0
   21.7690   36.3390   40.9080 C   0  0  0  0  0  3  0  0  0  0  0  0
   26.9640   38.3480   41.8750 C   0  0  0  0  0  2  0  0  0  0  0  0
   27.2750   37.3190   40.9740 C   0  0  0  0  0  3  0  0  0  0  0  0
   21.2250   38.7730   43.3690 C   0  0  0  0  0  2  0  0  0  0  0  0
   22.9050   39.8540   41.1310 C   0  0  0  0  0  2  0  0  0  0  0  0
   24.5500   37.9850   41.3230 C   0  0  0  0  0  3  0  0  0  0  0  0
   24.9520   36.9670   40.4390 C   0  0  0  0  0  2  0  0  0  0  0  0
   26.2770   36.6200   40.2500 C   0  0  0  0  0  2  0  0  0  0  0  0
   25.6180   38.6420   42.0760 C   0  0  0  0  0  3  0  0  0  0  0  0
   23.0780   38.3490   41.5490 C   0  0  0  0  0  0  0  0  0  0  0  0
   22.6150   38.1450   43.0560 C   0  0  0  0  0  3  0  0  0  0  0  0
   25.3950   39.6530   42.9110 F   0  0  0  0  0  0  0  0  0  0  0  0
   28.5400   36.9700   40.7960 F   0  0  0  0  0  0  0  0  0  0  0  0
   22.2230   37.5480   40.5980 N   0  0  0  0  0  2  0  0  0  0  0  0
   21.1110   35.5930   39.9540 N   0  0  0  0  0  1  0  0  0  0  0  0
   21.6310   40.2890   41.3900 O   0  0  0  0  0  0  0  0  0  0  0  0
   21.8640   35.4900   42.4890 S   0  0  0  0  0  0  0  0  0  0  0  0
  1  6  1  0
  1 18  1  0
  2 13  1  0
  2 19  1  0
  3 16  1  0
  3 17  1  0
  3 19  1  0
  4  5  1  0
  4 11  1  0
  5 10  1  0
  5 15  1  0
  6 13  1  0
  7 12  1  0
  7 18  1  0
  8  9  1  0
  8 11  1  0
  8 12  1  0
  9 10  1  0
 11 14  1  0
 12 13  1  0
 12 16  1  0
M  END
$$$$
