4wy6_A_3VP_401
     RDKit          3D

 36 38  0  0  0  0  0  0  0  0999 V2000
   20.7690  -39.5300    6.3150 C   0  0  0  0  0  3  0  0  0  0  0  0
   16.3200  -39.3030   10.5880 C   0  0  0  0  0  0  0  0  0  0  0  0
   17.6510  -39.6420    9.9150 C   0  0  0  0  0  0  0  0  0  0  0  0
   17.7270  -41.1030    9.5090 C   0  0  0  0  0  0  0  0  0  0  0  0
   16.3400  -40.0220    7.3700 C   0  0  0  0  0  3  0  0  0  0  0  0
   14.9080  -37.4090   11.4850 C   0  0  0  0  0  0  0  0  0  0  0  0
   19.4960  -39.3560    6.8430 C   0  0  0  0  0  3  0  0  0  0  0  0
   19.2860  -38.9110    8.1510 C   0  0  0  0  0  3  0  0  0  0  0  0
   20.4310  -38.6250    8.9120 C   0  0  0  0  0  3  0  0  0  0  0  0
   21.7330  -38.7600    8.4140 C   0  0  0  0  0  3  0  0  0  0  0  0
   21.8790  -39.2200    7.1070 C   0  0  0  0  0  3  0  0  0  0  0  0
   17.8840  -38.7130    8.7000 C   0  0  0  0  0  0  0  0  0  0  0  0
   17.6860  -37.2260    9.1330 C   0  0  0  0  0  0  0  0  0  0  0  0
   16.3040  -37.8110   10.9370 C   0  0  0  0  0  0  0  0  0  0  0  0
   23.0980  -39.3690    6.6120 F   0  0  0  0  0  0  0  0  0  0  0  0
   20.3340  -38.2130   10.1700 F   0  0  0  0  0  0  0  0  0  0  0  0
   14.9440  -36.1410   11.9440 F   0  0  0  0  0  0  0  0  0  0  0  0
   17.1010  -37.5720   11.6930 H   0  0  0  0  0  0  0  0  0  0  0  0
   17.5140  -41.7770   10.3590 H   0  0  0  0  0  0  0  0  0  0  0  0
   18.7400  -41.3680    9.1500 H   0  0  0  0  0  0  0  0  0  0  0  0
   15.2210  -39.3260    5.7600 H   0  0  0  0  0  0  0  0  0  0  0  0
   14.9370  -40.9690    6.1850 H   0  0  0  0  0  0  0  0  0  0  0  0
   14.1260  -37.4890   10.7000 H   0  0  0  0  0  0  0  0  0  0  0  0
   14.6110  -38.0850   12.3180 H   0  0  0  0  0  0  0  0  0  0  0  0
   18.4510  -39.4810   10.6810 H   0  0  0  0  0  0  0  0  0  0  0  0
   20.9010  -39.8880    5.2910 H   0  0  0  0  0  0  0  0  0  0  0  0
   18.6580  -39.5820    6.1740 H   0  0  0  0  0  0  0  0  0  0  0  0
   22.6030  -38.5150    9.0300 H   0  0  0  0  0  0  0  0  0  0  0  0
   18.5150  -36.8410    9.7620 H   0  0  0  0  0  0  0  0  0  0  0  0
   17.6220  -36.5460    8.2550 H   0  0  0  0  0  0  0  0  0  0  0  0
   16.1790  -39.9170   11.5020 H   0  0  0  0  0  0  0  0  0  0  0  0
   15.4570  -39.5620    9.9400 H   0  0  0  0  0  0  0  0  0  0  0  0
   16.8830  -38.8740    7.6400 N   0  0  0  0  0  2  0  0  0  0  0  0
   15.4750  -40.1330    6.3020 N   0  0  0  0  0  0  0  0  0  0  0  0
   16.4560  -37.0380    9.7730 O   0  0  0  0  0  0  0  0  0  0  0  0
   16.5470  -41.5810    8.2130 S   0  0  0  0  0  0  0  0  0  0  0  0
  1  7  1  0
  1 11  1  0
  1 26  1  0
  2  3  1  0
  2 14  1  0
  2 31  1  0
  2 32  1  0
  3  4  1  0
  3 12  1  0
  3 25  1  0
  4 19  1  0
  4 20  1  0
  4 36  1  0
  5 33  1  0
  5 34  1  0
  5 36  1  0
  6 14  1  0
  6 17  1  0
  6 23  1  0
  6 24  1  0
  7  8  1  0
  7 27  1  0
  8  9  1  0
  8 12  1  0
  9 10  1  0
  9 16  1  0
 10 11  1  0
 10 28  1  0
 11 15  1  0
 12 13  1  0
 12 33  1  0
 13 29  1  0
 13 30  1  0
 13 35  1  0
 14 18  1  0
 14 35  1  0
 21 34  1  0
 22 34  1  0
M  END
$$$$
