4x2l_A_3WP_401
     RDKit          3D

 28 29  0  0  0  0  0  0  0  0999 V2000
   16.5890  -38.2240    9.2210 C   0  0  0  0  0  0  0  0  0  0  0  0
   20.8460  -39.6540    8.7030 C   0  0  0  0  0  3  0  0  0  0  0  0
   19.4950  -39.5180    9.0980 C   0  0  0  0  0  3  0  0  0  0  0  0
   16.9240  -39.6400    8.7170 C   0  0  0  0  0  0  0  0  0  0  0  0
   16.6900  -40.6690    9.8350 C   0  0  0  0  0  0  0  0  0  0  0  0
   16.8600  -42.1070    9.3760 C   0  0  0  0  0  0  0  0  0  0  0  0
   15.4400  -40.9680    7.3360 C   0  0  0  0  0  3  0  0  0  0  0  0
   18.3890  -39.7500    8.2150 C   0  0  0  0  0  3  0  0  0  0  0  0
   18.7260  -40.1330    6.9010 C   0  0  0  0  0  3  0  0  0  0  0  0
   20.0440  -40.2980    6.4890 C   0  0  0  0  0  3  0  0  0  0  0  0
   21.1070  -40.0670    7.3870 C   0  0  0  0  0  3  0  0  0  0  0  0
   19.3090  -39.1990   10.3800 F   0  0  0  0  0  0  0  0  0  0  0  0
   22.3810  -40.3120    7.0090 F   0  0  0  0  0  0  0  0  0  0  0  0
   15.7650  -38.2240    9.9320 H   0  0  0  0  0  0  0  0  0  0  0  0
   17.9680  -40.3110    6.1400 H   0  0  0  0  0  0  0  0  0  0  0  0
   20.2490  -40.6150    5.4680 H   0  0  0  0  0  0  0  0  0  0  0  0
   21.6580  -39.4490    9.4000 H   0  0  0  0  0  0  0  0  0  0  0  0
   17.4140  -37.7120    9.7130 H   0  0  0  0  0  0  0  0  0  0  0  0
   16.2620  -37.5690    8.4160 H   0  0  0  0  0  0  0  0  0  0  0  0
   17.3200  -40.4750   10.7010 H   0  0  0  0  0  0  0  0  0  0  0  0
   15.6790  -40.5800   10.2270 H   0  0  0  0  0  0  0  0  0  0  0  0
   17.8460  -42.3020    8.9580 H   0  0  0  0  0  0  0  0  0  0  0  0
   16.7550  -42.8060   10.2050 H   0  0  0  0  0  0  0  0  0  0  0  0
   14.1550  -41.9060    6.0520 H   0  0  0  0  0  0  0  0  0  0  0  0
   14.3190  -40.1900    5.7800 H   0  0  0  0  0  0  0  0  0  0  0  0
   15.9760  -39.8370    7.6160 N   0  0  0  0  0  2  0  0  0  0  0  0
   14.5740  -41.0190    6.3070 N   0  0  0  0  0  0  0  0  0  0  0  0
   15.6870  -42.5820    8.0920 S   0  0  0  0  0  0  0  0  0  0  0  0
  1  4  1  0
  1 14  1  0
  1 18  1  0
  1 19  1  0
  2  3  1  0
  2 11  1  0
  2 17  1  0
  3  8  1  0
  3 12  1  0
  4  5  1  0
  4  8  1  0
  4 26  1  0
  5  6  1  0
  5 20  1  0
  5 21  1  0
  6 22  1  0
  6 23  1  0
  6 28  1  0
  7 26  1  0
  7 27  1  0
  7 28  1  0
  8  9  1  0
  9 10  1  0
  9 15  1  0
 10 11  1  0
 10 16  1  0
 11 13  1  0
 24 27  1  0
 25 27  1  0
M  END
$$$$
