4x7i_B_3YS_401
     RDKit          3D

 27 30  0  0  0  0  0  0  0  0999 V2000
   65.1260   35.6150   72.5550 C   0  0  0  0  0  3  0  0  0  0  0  0
   64.3870   33.0460   73.5220 C   0  0  0  0  0  2  0  0  0  0  0  0
   66.4150   34.3560   77.9930 C   0  0  0  0  0  2  0  0  0  0  0  0
   65.3590   34.5320   77.1410 C   0  0  0  0  0  3  0  0  0  0  0  0
   70.3620   34.9260   76.1800 C   0  0  0  0  0  3  0  0  0  0  0  0
   71.5330   35.3800   75.3540 C   0  0  0  0  0  3  0  0  0  0  0  0
   72.2570   36.6120   73.5610 C   0  0  0  0  0  2  0  0  0  0  0  0
   73.5310   36.0730   73.6930 C   0  0  0  0  0  3  0  0  0  0  0  0
   73.8330   35.2310   74.7370 C   0  0  0  0  0  2  0  0  0  0  0  0
   72.8210   34.9180   75.6310 C   0  0  0  0  0  2  0  0  0  0  0  0
   63.6240   33.9060   74.5260 C   0  0  0  0  0  3  0  0  0  0  0  0
   62.2820   34.3930   74.0400 C   0  0  0  0  0  2  0  0  0  0  0  0
   63.1830   35.9540   75.5070 C   0  0  0  0  0  2  0  0  0  0  0  0
   64.3540   35.2100   74.8440 C   0  0  0  0  0  0  0  0  0  0  0  0
   65.4780   35.0010   75.8400 C   0  0  0  0  0  3  0  0  0  0  0  0
   66.7780   35.2690   75.3980 C   0  0  0  0  0  2  0  0  0  0  0  0
   67.8760   35.0990   76.2350 C   0  0  0  0  0  3  0  0  0  0  0  0
   67.6870   34.6550   77.5430 C   0  0  0  0  0  2  0  0  0  0  0  0
   64.1170   34.2240   77.6010 F   0  0  0  0  0  0  0  0  0  0  0  0
   74.5140   36.5120   72.8690 F   0  0  0  0  0  0  0  0  0  0  0  0
   64.7660   36.0210   73.7070 N   0  0  0  0  0  2  0  0  0  0  0  0
   65.5830   36.4790   71.6370 N   0  0  0  0  0  1  0  0  0  0  0  0
   69.1710   35.4190   75.7620 N   0  0  0  0  0  2  0  0  0  0  0  0
   71.2620   36.2490   74.3700 N   0  0  0  0  0  2  0  0  0  0  0  0
   62.0390   35.6490   74.7200 O   0  0  0  0  0  0  0  0  0  0  0  0
   70.5020   34.1770   77.1430 O   0  0  0  0  0  1  0  0  0  0  0  0
   65.0220   33.9310   72.0710 S   0  0  0  0  0  0  0  0  0  0  0  0
  1 21  1  0
  1 22  1  0
  1 27  1  0
  2 11  1  0
  2 27  1  0
  3  4  1  0
  3 18  1  0
  4 15  1  0
  4 19  1  0
  5  6  1  0
  5 23  1  0
  5 26  1  0
  6 10  1  0
  6 24  1  0
  7  8  1  0
  7 24  1  0
  8  9  1  0
  8 20  1  0
  9 10  1  0
 11 12  1  0
 11 14  1  0
 12 25  1  0
 13 14  1  0
 13 25  1  0
 14 15  1  0
 14 21  1  0
 15 16  1  0
 16 17  1  0
 17 18  1  0
 17 23  1  0
M  END
$$$$
