4xxs_A_SI5_401
     RDKit          3D

 25 28  0  0  0  0  0  0  0  0999 V2000
   19.2790  -38.7140    8.1000 C   0  0  0  0  0  3  0  0  0  0  0  0
   14.7390  -37.0440   11.1970 C   0  0  0  0  0  3  0  0  0  0  0  0
   17.8180  -38.5170    8.5920 C   0  0  0  0  0  0  0  0  0  0  0  0
   17.4610  -39.4360    9.8280 C   0  0  0  0  0  3  0  0  0  0  0  0
   17.5540  -40.9030    9.4140 C   0  0  0  0  0  2  0  0  0  0  0  0
   16.2730  -39.8070    7.1500 C   0  0  0  0  0  3  0  0  0  0  0  0
   14.4110  -36.3400   12.4250 C   0  0  0  0  0  2  0  0  0  0  0  0
   13.5280  -37.1910   10.5390 C   0  0  0  0  0  2  0  0  0  0  0  0
   11.1540  -36.5520   11.0410 C   0  0  0  0  0  1  0  0  0  0  0  0
   19.4930  -39.1340    6.7890 C   0  0  0  0  0  2  0  0  0  0  0  0
   20.7650  -39.3280    6.2880 C   0  0  0  0  0  2  0  0  0  0  0  0
   21.8270  -39.0790    7.1120 C   0  0  0  0  0  3  0  0  0  0  0  0
   21.6920  -38.6370    8.4060 C   0  0  0  0  0  2  0  0  0  0  0  0
   20.4120  -38.4850    8.8710 C   0  0  0  0  0  3  0  0  0  0  0  0
   17.6430  -37.0110    8.9800 C   0  0  0  0  0  2  0  0  0  0  0  0
   16.0840  -37.5120   10.7370 C   0  0  0  0  0  3  0  0  0  0  0  0
   16.1160  -39.0080   10.4470 C   0  0  0  0  0  2  0  0  0  0  0  0
   20.2460  -38.1220   10.1680 F   0  0  0  0  0  0  0  0  0  0  0  0
   23.0630  -39.3190    6.6400 F   0  0  0  0  0  0  0  0  0  0  0  0
   16.8400  -38.6680    7.4760 N   0  0  0  0  0  2  0  0  0  0  0  0
   15.4360  -39.9030    6.1010 N   0  0  0  0  0  1  0  0  0  0  0  0
   13.1140  -36.0900   12.4820 N   0  0  0  0  0  2  0  0  0  0  0  0
   12.5860  -36.6280   11.3030 N   0  0  0  0  0  0  0  0  0  0  0  0
   16.3720  -36.7290    9.5750 O   0  0  0  0  0  0  0  0  0  0  0  0
   16.4190  -41.3010    8.0610 S   0  0  0  0  0  0  0  0  0  0  0  0
  1  3  1  0
  1 10  1  0
  1 14  1  0
  2  7  1  0
  2  8  1  0
  2 16  1  0
  3  4  1  0
  3 15  1  0
  3 20  1  0
  4  5  1  0
  4 17  1  0
  5 25  1  0
  6 20  1  0
  6 21  1  0
  6 25  1  0
  7 22  1  0
  8 23  1  0
  9 23  1  0
 10 11  1  0
 11 12  1  0
 12 13  1  0
 12 19  1  0
 13 14  1  0
 14 18  1  0
 15 24  1  0
 16 17  1  0
 16 24  1  0
 22 23  1  0
M  END
$$$$
