4ybi_A_4B2_401
     RDKit          3D

 22 24  0  0  0  0  0  0  0  0999 V2000
   25.9250   56.2330   86.1040 C   0  0  0  0  0  3  0  0  0  0  0  0
   21.3480   55.0390   86.7360 C   0  0  0  0  0  1  0  0  0  0  0  0
   21.6720   57.1430   87.9750 C   0  0  0  0  0  2  0  0  0  0  0  0
   22.5900   57.9800   88.8330 C   0  0  0  0  0  2  0  0  0  0  0  0
   22.9490   55.3570   89.7570 C   0  0  0  0  0  3  0  0  0  0  0  0
   27.2950   56.0170   86.5810 C   0  0  0  0  0  3  0  0  0  0  0  0
   27.7500   54.8650   87.1850 C   0  0  0  0  0  2  0  0  0  0  0  0
   25.6450   56.8010   84.8720 C   0  0  0  0  0  3  0  0  0  0  0  0
   29.7840   55.7750   87.6010 C   0  0  0  0  0  2  0  0  0  0  0  0
   28.2360   57.0290   86.5430 C   0  0  0  0  0  2  0  0  0  0  0  0
   24.3660   57.0860   84.4460 C   0  0  0  0  0  2  0  0  0  0  0  0
   23.3390   56.8050   85.3150 C   0  0  0  0  0  3  0  0  0  0  0  0
   23.5410   56.2190   86.5570 C   0  0  0  0  0  3  0  0  0  0  0  0
   24.8480   55.9400   86.9260 C   0  0  0  0  0  2  0  0  0  0  0  0
   22.3780   55.8930   87.4710 C   0  0  0  0  0  0  0  0  0  0  0  0
   26.6350   57.1000   84.0590 F   0  0  0  0  0  0  0  0  0  0  0  0
   22.1050   57.0900   84.9160 F   0  0  0  0  0  0  0  0  0  0  0  0
   22.6810   54.9670   88.5590 N   0  0  0  0  0  2  0  0  0  0  0  0
   23.1930   54.4560   90.7790 N   0  0  0  0  0  1  0  0  0  0  0  0
   28.9830   54.7060   87.6910 N   0  0  0  0  0  2  0  0  0  0  0  0
   29.4790   56.9460   87.0420 N   0  0  0  0  0  2  0  0  0  0  0  0
   23.0390   57.0270   90.3080 S   0  0  0  0  0  0  0  0  0  0  0  0
  1  6  1  0
  1  8  1  0
  1 14  1  0
  2 15  1  0
  3  4  1  0
  3 15  1  0
  4 22  1  0
  5 18  1  0
  5 19  1  0
  5 22  1  0
  6  7  1  0
  6 10  1  0
  7 20  1  0
  8 11  1  0
  8 16  1  0
  9 20  1  0
  9 21  1  0
 10 21  1  0
 11 12  1  0
 12 13  1  0
 12 17  1  0
 13 14  1  0
 13 15  1  0
 15 18  1  0
M  END
$$$$
