4zpe_A_4QA_501
     RDKit          3D

 36 40  0  0  0  0  0  0  0  0999 V2000
   29.5280   38.6570    0.5040 C   0  0  0  0  0  0  0  0  0  0  0  0
   29.2640   39.5690    1.6970 C   0  0  0  0  0  2  0  0  0  0  0  0
   30.5830   40.3360   -1.0990 C   0  0  0  0  0  3  0  0  0  0  0  0
   26.4460   36.3600    0.7970 C   0  0  0  0  0  3  0  0  0  0  0  0
   26.8560   34.9320    0.4710 C   0  0  0  0  0  2  0  0  0  0  0  0
   25.6250   34.0660    0.2170 C   0  0  0  0  0  2  0  0  0  0  0  0
   24.6450   34.1180    1.3770 C   0  0  0  0  0  2  0  0  0  0  0  0
   24.2530   35.5420    1.7350 C   0  0  0  0  0  2  0  0  0  0  0  0
   25.4970   36.3920    1.9860 C   0  0  0  0  0  2  0  0  0  0  0  0
   30.3650   41.6710   -0.8090 C   0  0  0  0  0  2  0  0  0  0  0  0
   31.2870   42.6330   -1.1680 C   0  0  0  0  0  2  0  0  0  0  0  0
   32.3970   42.2700   -1.8970 C   0  0  0  0  0  2  0  0  0  0  0  0
   32.5800   40.9400   -2.2260 C   0  0  0  0  0  3  0  0  0  0  0  0
   31.6880   39.9630   -1.8370 C   0  0  0  0  0  2  0  0  0  0  0  0
   32.9320   39.7690    3.0510 C   0  0  0  0  0  2  0  0  0  0  0  0
   33.6230   40.8050    2.2150 C   0  0  0  0  0  3  0  0  0  0  0  0
   34.5700   40.4720    1.2740 C   0  0  0  0  0  2  0  0  0  0  0  0
   35.1610   41.4490    0.4930 C   0  0  0  0  0  2  0  0  0  0  0  0
   28.6250   39.0090   -1.6560 C   0  0  0  0  0  3  0  0  0  0  0  0
   34.8010   42.7730    0.6640 C   0  0  0  0  0  2  0  0  0  0  0  0
   33.8560   43.1110    1.6130 C   0  0  0  0  0  3  0  0  0  0  0  0
   33.2740   42.1230    2.3860 C   0  0  0  0  0  2  0  0  0  0  0  0
   32.3450   44.6200    2.5680 C   0  0  0  0  0  3  0  0  0  0  0  0
   32.8260   45.1600    3.8860 C   0  0  0  0  0  1  0  0  0  0  0  0
   31.4100   45.6000    1.8740 C   0  0  0  0  0  1  0  0  0  0  0  0
   28.2340   37.9350    0.1560 C   0  0  0  0  0  3  0  0  0  0  0  0
   30.6660   37.6710    0.7530 C   0  0  0  0  0  2  0  0  0  0  0  0
   31.9600   38.2980    1.2680 C   0  0  0  0  0  2  0  0  0  0  0  0
   30.5300   40.1860    2.2820 C   0  0  0  0  0  2  0  0  0  0  0  0
   33.6250   40.5910   -2.9600 F   0  0  0  0  0  0  0  0  0  0  0  0
   27.6430   37.1260    1.1120 N   0  0  0  0  0  2  0  0  0  0  0  0
   29.6140   39.3700   -0.7550 N   0  0  0  0  0  0  0  0  0  0  0  0
   27.7340   38.1870   -1.0260 N   0  0  0  0  0  2  0  0  0  0  0  0
   31.6940   39.2300    2.3830 N   0  0  0  0  0  0  0  0  0  0  0  0
   28.6080   39.2810   -2.8510 O   0  0  0  0  0  1  0  0  0  0  0  0
   33.5060   44.4510    1.7320 O   0  0  0  0  0  0  0  0  0  0  0  0
  1  2  1  0
  1 26  1  0
  1 27  1  0
  1 32  1  0
  2 29  1  0
  3 10  1  0
  3 14  1  0
  3 32  1  0
  4  5  1  0
  4  9  1  0
  4 31  1  0
  5  6  1  0
  6  7  1  0
  7  8  1  0
  8  9  1  0
 10 11  1  0
 11 12  1  0
 12 13  1  0
 13 14  1  0
 13 30  1  0
 15 16  1  0
 15 34  1  0
 16 17  1  0
 16 22  1  0
 17 18  1  0
 18 20  1  0
 19 32  1  0
 19 33  1  0
 19 35  1  0
 20 21  1  0
 21 22  1  0
 21 36  1  0
 23 24  1  0
 23 25  1  0
 23 36  1  0
 26 31  1  0
 26 33  1  0
 27 28  1  0
 28 34  1  0
 29 34  1  0
M  END
$$$$
