4zpf_A_4QD_501
     RDKit          3D

 37 41  0  0  0  0  0  0  0  0999 V2000
   29.3880   38.3760    0.4510 C   0  0  0  0  0  0  0  0  0  0  0  0
   29.1240   39.2720    1.6580 C   0  0  0  0  0  2  0  0  0  0  0  0
   30.4590   40.0380   -1.1720 C   0  0  0  0  0  3  0  0  0  0  0  0
   26.2570   36.1490    0.7600 C   0  0  0  0  0  3  0  0  0  0  0  0
   26.4940   34.6900    0.4050 C   0  0  0  0  0  2  0  0  0  0  0  0
   25.1650   33.9790    0.1260 C   0  0  0  0  0  2  0  0  0  0  0  0
   24.2340   34.1000    1.3280 C   0  0  0  0  0  2  0  0  0  0  0  0
   24.0080   35.5640    1.6780 C   0  0  0  0  0  2  0  0  0  0  0  0
   25.3390   36.2500    1.9670 C   0  0  0  0  0  2  0  0  0  0  0  0
   30.2510   41.3720   -0.8800 C   0  0  0  0  0  2  0  0  0  0  0  0
   31.1900   42.3170   -1.2340 C   0  0  0  0  0  2  0  0  0  0  0  0
   32.3140   41.9380   -1.9350 C   0  0  0  0  0  2  0  0  0  0  0  0
   32.4980   40.6070   -2.2460 C   0  0  0  0  0  3  0  0  0  0  0  0
   31.5760   39.6470   -1.8870 C   0  0  0  0  0  2  0  0  0  0  0  0
   32.7650   39.4110    3.0430 C   0  0  0  0  0  2  0  0  0  0  0  0
   33.4470   40.4730    2.2280 C   0  0  0  0  0  3  0  0  0  0  0  0
   34.4030   40.1510    1.2770 C   0  0  0  0  0  2  0  0  0  0  0  0
   35.0070   41.1390    0.5170 C   0  0  0  0  0  2  0  0  0  0  0  0
   28.4990   38.7390   -1.7080 C   0  0  0  0  0  3  0  0  0  0  0  0
   34.6360   42.4570    0.7070 C   0  0  0  0  0  2  0  0  0  0  0  0
   33.6780   42.7840    1.6530 C   0  0  0  0  0  3  0  0  0  0  0  0
   33.0910   41.7940    2.4200 C   0  0  0  0  0  2  0  0  0  0  0  0
   32.4870   44.4780    2.8650 C   0  0  0  0  0  3  0  0  0  0  0  0
   31.9640   45.8730    2.5670 C   0  0  0  0  0  2  0  0  0  0  0  0
   33.3070   44.5620    4.1480 C   0  0  0  0  0  1  0  0  0  0  0  0
   28.1100   37.6410    0.0940 C   0  0  0  0  0  3  0  0  0  0  0  0
   30.5040   37.3570    0.7180 C   0  0  0  0  0  2  0  0  0  0  0  0
   31.7970   37.9900    1.2240 C   0  0  0  0  0  2  0  0  0  0  0  0
   30.4060   39.8730    2.2400 C   0  0  0  0  0  2  0  0  0  0  0  0
   33.5810   40.2490   -2.9350 F   0  0  0  0  0  0  0  0  0  0  0  0
   27.5260   36.8070    1.0300 N   0  0  0  0  0  2  0  0  0  0  0  0
   29.4820   39.0890   -0.8100 N   0  0  0  0  0  0  0  0  0  0  0  0
   31.1010   45.8060    1.3640 N   0  0  0  0  0  1  0  0  0  0  0  0
   27.6520   37.8660   -1.1020 N   0  0  0  0  0  2  0  0  0  0  0  0
   31.5170   38.8690    2.4040 N   0  0  0  0  0  0  0  0  0  0  0  0
   28.4100   39.1170   -2.8650 O   0  0  0  0  0  1  0  0  0  0  0  0
   33.3600   44.1370    1.7710 O   0  0  0  0  0  0  0  0  0  0  0  0
  1  2  1  0
  1 26  1  0
  1 27  1  0
  1 32  1  0
  2 29  1  0
  3 10  1  0
  3 14  1  0
  3 32  1  0
  4  5  1  0
  4  9  1  0
  4 31  1  0
  5  6  1  0
  6  7  1  0
  7  8  1  0
  8  9  1  0
 10 11  1  0
 11 12  1  0
 12 13  1  0
 13 14  1  0
 13 30  1  0
 15 16  1  0
 15 35  1  0
 16 17  1  0
 16 22  1  0
 17 18  1  0
 18 20  1  0
 19 32  1  0
 19 34  1  0
 19 36  1  0
 20 21  1  0
 21 22  1  0
 21 37  1  0
 23 24  1  0
 23 25  1  0
 23 37  1  0
 24 33  1  0
 26 31  1  0
 26 34  1  0
 27 28  1  0
 28 35  1  0
 29 35  1  0
M  END
$$$$
