4zsm_B_4RW_401
     RDKit          3D

 11 12  0  0  0  0  0  0  0  0999 V2000
   40.6580   37.2710   46.4780 C   0  0  0  0  0  2  0  0  0  0  0  0
   41.8100   38.1000   46.9970 C   0  0  0  0  0  2  0  0  0  0  0  0
   40.6700   37.2920   44.9570 C   0  0  0  0  0  2  0  0  0  0  0  0
   41.6740   39.5330   46.5140 C   0  0  0  0  0  2  0  0  0  0  0  0
   40.4700   38.8050   42.9670 C   0  0  0  0  0  2  0  0  0  0  0  0
   43.2840   38.7570   43.4060 C   0  0  0  0  0  3  0  0  0  0  0  0
   40.5610   38.7260   44.4710 C   0  0  0  0  0  3  0  0  0  0  0  0
   41.6890   39.6000   44.9980 C   0  0  0  0  0  3  0  0  0  0  0  0
   43.0610   39.2330   44.5920 N   0  0  0  0  0  2  0  0  0  0  0  0
   44.5390   38.4160   42.9940 N   0  0  0  0  0  1  0  0  0  0  0  0
   42.0620   38.4660   42.1650 S   0  0  0  0  0  0  0  0  0  0  0  0
  1  2  1  0
  1  3  1  0
  2  4  1  0
  3  7  1  0
  4  8  1  0
  5  7  1  0
  5 11  1  0
  6  9  1  0
  6 10  1  0
  6 11  1  0
  7  8  1  0
  8  9  1  0
M  END
$$$$
