4zsp_A_4RZ_401
     RDKit          3D

 21 23  0  0  0  0  0  0  0  0999 V2000
   22.3000   55.7260   88.5720 C   0  0  0  0  0  3  0  0  0  0  0  0
   28.4400   56.0010   85.9650 C   0  0  0  0  0  2  0  0  0  0  0  0
   29.7280   55.9340   86.4340 C   0  0  0  0  0  3  0  0  0  0  0  0
   30.7290   56.7140   85.8770 C   0  0  0  0  0  2  0  0  0  0  0  0
   30.4330   57.5640   84.8330 C   0  0  0  0  0  2  0  0  0  0  0  0
   29.1370   57.6320   84.3480 C   0  0  0  0  0  2  0  0  0  0  0  0
   23.8050   57.6460   86.2770 C   0  0  0  0  0  2  0  0  0  0  0  0
   21.7040   58.2560   87.5510 C   0  0  0  0  0  2  0  0  0  0  0  0
   22.2780   57.5800   86.3210 C   0  0  0  0  0  3  0  0  0  0  0  0
   21.6700   56.1960   86.2050 C   0  0  0  0  0  3  0  0  0  0  0  0
   22.2010   55.5840   84.9080 C   0  0  0  0  0  2  0  0  0  0  0  0
   23.7180   55.4960   84.9520 C   0  0  0  0  0  2  0  0  0  0  0  0
   24.3760   56.8740   85.1060 C   0  0  0  0  0  3  0  0  0  0  0  0
   26.7590   56.9490   84.4040 C   0  0  0  0  0  3  0  0  0  0  0  0
   28.1460   56.8520   84.9190 C   0  0  0  0  0  3  0  0  0  0  0  0
   30.0980   54.8670   87.7450 Cl  0  0  0  0  0  0  0  0  0  0  0  0
   22.0180   55.3310   87.3410 N   0  0  0  0  0  2  0  0  0  0  0  0
   22.6490   54.8580   89.4960 N   0  0  0  0  0  1  0  0  0  0  0  0
   25.7910   56.6970   85.3410 N   0  0  0  0  0  2  0  0  0  0  0  0
   26.5490   57.2620   83.2420 O   0  0  0  0  0  1  0  0  0  0  0  0
   22.2610   57.3930   89.0490 S   0  0  0  0  0  0  0  0  0  0  0  0
  1 17  1  0
  1 18  1  0
  1 21  1  0
  2  3  1  0
  2 15  1  0
  3  4  1  0
  3 16  1  0
  4  5  1  0
  5  6  1  0
  6 15  1  0
  7  9  1  0
  7 13  1  0
  8  9  1  0
  8 21  1  0
  9 10  1  0
 10 11  1  0
 10 17  1  0
 11 12  1  0
 12 13  1  0
 13 19  1  0
 14 15  1  0
 14 19  1  0
 14 20  1  0
M  END
$$$$
