4zsq_B_4RX_401
     RDKit          3D

 24 27  0  0  0  0  0  0  0  0999 V2000
  -26.4500   11.1170  -19.3070 C   0  0  0  0  0  3  0  0  0  0  0  0
  -27.8250   10.9410  -19.8260 C   0  0  0  0  0  3  0  0  0  0  0  0
  -28.8310   11.6700  -19.2400 C   0  0  0  0  0  2  0  0  0  0  0  0
  -30.1200   11.5230  -19.7030 C   0  0  0  0  0  2  0  0  0  0  0  0
  -30.4180   10.6640  -20.7340 C   0  0  0  0  0  2  0  0  0  0  0  0
  -29.4110    9.9290  -21.3150 C   0  0  0  0  0  3  0  0  0  0  0  0
  -28.1110   10.0660  -20.8630 C   0  0  0  0  0  2  0  0  0  0  0  0
  -22.0610    9.6980  -23.3780 C   0  0  0  0  0  3  0  0  0  0  0  0
  -21.5100   12.3360  -22.6170 C   0  0  0  0  0  3  0  0  0  0  0  0
  -19.9870   12.3810  -22.5420 C   0  0  0  0  0  2  0  0  0  0  0  0
  -19.9450   10.5410  -21.0610 C   0  0  0  0  0  2  0  0  0  0  0  0
  -21.4520   10.3730  -21.1360 C   0  0  0  0  0  0  0  0  0  0  0  0
  -22.0520   11.7500  -21.3370 C   0  0  0  0  0  3  0  0  0  0  0  0
  -23.5600   11.7490  -21.2970 C   0  0  0  0  0  2  0  0  0  0  0  0
  -24.0760   11.0720  -20.0560 C   0  0  0  0  0  3  0  0  0  0  0  0
  -23.4380    9.7230  -19.8480 C   0  0  0  0  0  2  0  0  0  0  0  0
  -21.9370    9.8100  -19.8170 C   0  0  0  0  0  2  0  0  0  0  0  0
  -29.8360    8.8380  -22.5930 Cl  0  0  0  0  0  0  0  0  0  0  0  0
  -25.4850   10.8460  -20.2470 N   0  0  0  0  0  2  0  0  0  0  0  0
  -22.3750    8.7620  -24.3200 N   0  0  0  0  0  1  0  0  0  0  0  0
  -21.8110    9.3580  -22.1520 N   0  0  0  0  0  2  0  0  0  0  0  0
  -26.2510   11.4740  -18.1520 O   0  0  0  0  0  1  0  0  0  0  0  0
  -19.4190   11.1090  -22.2610 O   0  0  0  0  0  0  0  0  0  0  0  0
  -22.0520   11.3440  -24.0390 S   0  0  0  0  0  0  0  0  0  0  0  0
  1  2  1  0
  1 19  1  0
  1 22  1  0
  2  3  1  0
  2  7  1  0
  3  4  1  0
  4  5  1  0
  5  6  1  0
  6  7  1  0
  6 18  1  0
  8 20  1  0
  8 21  1  0
  8 24  1  0
  9 10  1  0
  9 13  1  0
  9 24  1  0
 10 23  1  0
 11 12  1  0
 11 23  1  0
 12 13  1  0
 12 17  1  0
 12 21  1  0
 13 14  1  0
 14 15  1  0
 15 16  1  0
 15 19  1  0
 16 17  1  0
M  END
$$$$
