4zsq_A_4RX_401
     RDKit          3D

 24 27  0  0  0  0  0  0  0  0999 V2000
   16.5960  -10.7740  -10.5080 C   0  0  0  0  0  3  0  0  0  0  0  0
   15.2360  -10.6590   -9.9500 C   0  0  0  0  0  3  0  0  0  0  0  0
   14.2390  -11.4370  -10.4920 C   0  0  0  0  0  2  0  0  0  0  0  0
   12.9640  -11.3470   -9.9700 C   0  0  0  0  0  2  0  0  0  0  0  0
   12.6820  -10.4960   -8.9200 C   0  0  0  0  0  2  0  0  0  0  0  0
   13.6890   -9.7200   -8.3930 C   0  0  0  0  0  3  0  0  0  0  0  0
   14.9730   -9.7910   -8.9010 C   0  0  0  0  0  2  0  0  0  0  0  0
   21.0010   -9.3480   -6.3850 C   0  0  0  0  0  3  0  0  0  0  0  0
   21.6150  -11.9680   -7.1840 C   0  0  0  0  0  3  0  0  0  0  0  0
   23.1360  -11.9800   -7.3610 C   0  0  0  0  0  2  0  0  0  0  0  0
   23.1240  -10.0500   -8.7240 C   0  0  0  0  0  2  0  0  0  0  0  0
   21.6020   -9.9690   -8.6560 C   0  0  0  0  0  0  0  0  0  0  0  0
   21.0340  -11.3690   -8.4430 C   0  0  0  0  0  3  0  0  0  0  0  0
   19.5160  -11.4090   -8.4530 C   0  0  0  0  0  2  0  0  0  0  0  0
   18.9830  -10.7930   -9.7340 C   0  0  0  0  0  3  0  0  0  0  0  0
   19.5900   -9.4300  -10.0380 C   0  0  0  0  0  2  0  0  0  0  0  0
   21.1010   -9.4220   -9.9860 C   0  0  0  0  0  2  0  0  0  0  0  0
   13.3090   -8.6520   -7.0960 Cl  0  0  0  0  0  0  0  0  0  0  0  0
   17.5650  -10.6290   -9.5430 N   0  0  0  0  0  2  0  0  0  0  0  0
   20.6610   -8.4280   -5.4330 N   0  0  0  0  0  1  0  0  0  0  0  0
   21.2120   -8.9850   -7.6150 N   0  0  0  0  0  2  0  0  0  0  0  0
   16.7660  -10.9970  -11.6990 O   0  0  0  0  0  1  0  0  0  0  0  0
   23.6520  -10.6640   -7.5420 O   0  0  0  0  0  0  0  0  0  0  0  0
   21.0870  -10.9920   -5.7330 S   0  0  0  0  0  0  0  0  0  0  0  0
  1  2  1  0
  1 19  1  0
  1 22  1  0
  2  3  1  0
  2  7  1  0
  3  4  1  0
  4  5  1  0
  5  6  1  0
  6  7  1  0
  6 18  1  0
  8 20  1  0
  8 21  1  0
  8 24  1  0
  9 10  1  0
  9 13  1  0
  9 24  1  0
 10 23  1  0
 11 12  1  0
 11 23  1  0
 12 13  1  0
 12 17  1  0
 12 21  1  0
 13 14  1  0
 14 15  1  0
 15 16  1  0
 15 19  1  0
 16 17  1  0
M  END
$$$$
