5clm_A_52K_401
     RDKit          3D

 24 26  0  0  0  0  0  0  0  0999 V2000
   69.0250   49.3620    9.2580 C   0  0  0  0  0  2  0  0  0  0  0  0
   71.3650   49.4210    6.6860 C   0  0  0  0  0  2  0  0  0  0  0  0
   71.9160   50.6770    8.6470 C   0  0  0  0  0  2  0  0  0  0  0  0
   72.7080   49.2580    6.3860 C   0  0  0  0  0  3  0  0  0  0  0  0
   73.2670   50.5050    8.3600 C   0  0  0  0  0  2  0  0  0  0  0  0
   73.6690   49.7980    7.2350 C   0  0  0  0  0  2  0  0  0  0  0  0
   74.0650   47.8480    4.6810 C   0  0  0  0  0  3  0  0  0  0  0  0
   73.9470   47.0820    3.4240 C   0  0  0  0  0  3  0  0  0  0  0  0
   69.4340   50.3400    8.1430 C   0  0  0  0  0  0  0  0  0  0  0  0
   74.8160   46.0380    3.0940 C   0  0  0  0  0  2  0  0  0  0  0  0
   72.7330   46.6820    1.3800 C   0  0  0  0  0  2  0  0  0  0  0  0
   74.6430   45.3370    1.9040 C   0  0  0  0  0  2  0  0  0  0  0  0
   73.5970   45.6560    1.0460 C   0  0  0  0  0  3  0  0  0  0  0  0
   68.3380   47.6900    7.6800 C   0  0  0  0  0  2  0  0  0  0  0  0
   68.0490   48.8760    6.7650 C   0  0  0  0  0  3  0  0  0  0  0  0
   69.1140   51.7750    8.5720 C   0  0  0  0  0  1  0  0  0  0  0  0
   70.9330   50.1410    7.8060 C   0  0  0  0  0  3  0  0  0  0  0  0
   73.3540   44.8170   -0.4340 Cl  0  0  0  0  0  0  0  0  0  0  0  0
   72.9510   48.4940    5.2170 N   0  0  0  0  0  2  0  0  0  0  0  0
   72.9040   47.3890    2.5610 N   0  0  0  0  0  2  0  0  0  0  0  0
   68.6070   50.0360    6.9520 N   0  0  0  0  0  2  0  0  0  0  0  0
   67.1800   48.7370    5.7210 N   0  0  0  0  0  1  0  0  0  0  0  0
   75.1370   47.9060    5.2460 O   0  0  0  0  0  1  0  0  0  0  0  0
   69.1640   48.0170    8.8050 O   0  0  0  0  0  0  0  0  0  0  0  0
  1  9  1  0
  1 24  1  0
  2  4  1  0
  2 17  1  0
  3  5  1  0
  3 17  1  0
  4  6  1  0
  4 19  1  0
  5  6  1  0
  7  8  1  0
  7 19  1  0
  7 23  1  0
  8 10  1  0
  8 20  1  0
  9 16  1  0
  9 17  1  0
  9 21  1  0
 10 12  1  0
 11 13  1  0
 11 20  1  0
 12 13  1  0
 13 18  1  0
 14 15  1  0
 14 24  1  0
 15 21  1  0
 15 22  1  0
M  END
$$$$
