5dqc_C_5E7_401
     RDKit          3D

 49 51  0  0  0  0  0  0  0  0999 V2000
   42.2920   -8.0030  101.4630 C   0  0  0  0  0  1  0  0  0  0  0  0
   39.5760   -5.6750  100.6330 C   0  0  0  0  0  1  0  0  0  0  0  0
   40.4510   -9.1620  100.1170 C   0  0  0  0  0  3  0  0  0  0  0  0
   41.0310  -10.4600  100.1890 C   0  0  0  0  0  2  0  0  0  0  0  0
   40.3140  -11.6150   99.8370 C   0  0  0  0  0  3  0  0  0  0  0  0
   40.8600  -13.0240   99.8960 C   0  0  0  0  0  3  0  0  0  0  0  0
   40.8970  -15.4180   98.8220 C   0  0  0  0  0  3  0  0  0  0  0  0
   39.6780  -16.3200   98.4520 C   0  0  0  0  0  2  0  0  0  0  0  0
   38.3270  -15.8570   99.0510 C   0  0  0  0  0  3  0  0  0  0  0  0
   37.1080  -15.8190   98.3520 C   0  0  0  0  0  2  0  0  0  0  0  0
   35.9180  -15.3890   98.9500 C   0  0  0  0  0  2  0  0  0  0  0  0
   35.9030  -14.9720  100.2690 C   0  0  0  0  0  2  0  0  0  0  0  0
   37.0850  -14.9870  100.9910 C   0  0  0  0  0  2  0  0  0  0  0  0
   38.2540  -15.4230  100.3750 C   0  0  0  0  0  2  0  0  0  0  0  0
   42.0930  -15.5470   97.7870 C   0  0  0  0  0  3  0  0  0  0  0  0
   43.3550  -14.8650   98.3950 C   0  0  0  0  0  2  0  0  0  0  0  0
   45.8300  -15.0960   98.2780 C   0  0  0  0  0  3  0  0  0  0  0  0
   46.4780  -13.7020   98.5710 C   0  0  0  0  0  3  0  0  0  0  0  0
   47.9200  -13.8350   99.0600 C   0  0  0  0  0  1  0  0  0  0  0  0
   45.7550  -15.9900   99.6000 C   0  0  0  0  0  3  0  0  0  0  0  0
   45.6380  -18.2700  100.7660 C   0  0  0  0  0  2  0  0  0  0  0  0
   45.6350  -19.8020  100.4610 C   0  0  0  0  0  3  0  0  0  0  0  0
   46.6910  -20.1770   99.4060 C   0  0  0  0  0  1  0  0  0  0  0  0
   45.8780  -20.6200  101.7260 C   0  0  0  0  0  1  0  0  0  0  0  0
   38.9940  -11.4310   99.4020 C   0  0  0  0  0  2  0  0  0  0  0  0
   38.3370  -10.1930   99.3090 C   0  0  0  0  0  3  0  0  0  0  0  0
   36.8980  -10.1210   98.7960 C   0  0  0  0  0  3  0  0  0  0  0  0
   35.1470  -11.0960   97.0750 C   0  0  0  0  0  3  0  0  0  0  0  0
   34.7360  -12.5810   97.0770 C   0  0  0  0  0  1  0  0  0  0  0  0
   35.2600  -10.6270   95.6140 C   0  0  0  0  0  3  0  0  0  0  0  0
   36.0470  -11.3460   94.7010 C   0  0  0  0  0  2  0  0  0  0  0  0
   36.1750  -10.9430   93.3670 C   0  0  0  0  0  2  0  0  0  0  0  0
   35.5280   -9.8020   92.9150 C   0  0  0  0  0  2  0  0  0  0  0  0
   34.7540   -9.0710   93.8050 C   0  0  0  0  0  2  0  0  0  0  0  0
   34.6330   -9.4850   95.1280 C   0  0  0  0  0  2  0  0  0  0  0  0
   39.1070   -9.0720   99.6580 C   0  0  0  0  0  2  0  0  0  0  0  0
   41.2030   -7.9540  100.4640 N   0  0  0  0  0  0  0  0  0  0  0  0
   40.5340  -13.9840   98.9410 N   0  0  0  0  0  2  0  0  0  0  0  0
   44.5640  -14.8830   97.5280 N   0  0  0  0  0  2  0  0  0  0  0  0
   45.7020  -17.3910   99.5720 N   0  0  0  0  0  2  0  0  0  0  0  0
   36.4460  -10.9610   97.7670 N   0  0  0  0  0  2  0  0  0  0  0  0
   42.0460   -5.6770   99.8070 O   0  0  0  0  0  1  0  0  0  0  0  0
   40.4140   -6.6590   98.3950 O   0  0  0  0  0  1  0  0  0  0  0  0
   42.3780  -16.9000   97.6210 O   0  0  0  0  0  1  0  0  0  0  0  0
   45.6900  -13.0510   99.5360 O   0  0  0  0  0  1  0  0  0  0  0  0
   45.7340  -15.4250  100.7060 O   0  0  0  0  0  1  0  0  0  0  0  0
   41.6130  -13.3750  100.8280 O   0  0  0  0  0  1  0  0  0  0  0  0
   36.0870   -9.3100   99.2800 O   0  0  0  0  0  1  0  0  0  0  0  0
   40.8720   -6.4510   99.7160 S   0  0  0  0  0  4  0  0  0  0  0  0
  1 37  1  0
  2 49  1  0
  3  4  1  0
  3 36  1  0
  3 37  1  0
  4  5  1  0
  5  6  1  0
  5 25  1  0
  6 38  1  0
  6 47  1  0
  7  8  1  0
  7 15  1  0
  7 38  1  0
  8  9  1  0
  9 10  1  0
  9 14  1  0
 10 11  1  0
 11 12  1  0
 12 13  1  0
 13 14  1  0
 15 16  1  0
 15 44  1  0
 16 39  1  0
 17 18  1  0
 17 20  1  0
 17 39  1  0
 18 19  1  0
 18 45  1  0
 20 40  1  0
 20 46  1  0
 21 22  1  0
 21 40  1  0
 22 23  1  0
 22 24  1  0
 25 26  1  0
 26 27  1  0
 26 36  1  0
 27 41  1  0
 27 48  1  0
 28 29  1  0
 28 30  1  0
 28 41  1  0
 30 31  1  0
 30 35  1  0
 31 32  1  0
 32 33  1  0
 33 34  1  0
 34 35  1  0
 37 49  1  0
 42 49  1  0
 43 49  1  0
M  END
$$$$
