5dqc_B_5E7_401
     RDKit          3D

 49 51  0  0  0  0  0  0  0  0999 V2000
   12.0570  -21.9480   74.2650 C   0  0  0  0  0  1  0  0  0  0  0  0
    9.0160  -22.4020   71.4900 C   0  0  0  0  0  1  0  0  0  0  0  0
   12.0700  -21.4700   71.7300 C   0  0  0  0  0  3  0  0  0  0  0  0
   12.8750  -20.2910   71.8010 C   0  0  0  0  0  2  0  0  0  0  0  0
   13.4800  -19.7230   70.6530 C   0  0  0  0  0  3  0  0  0  0  0  0
   14.3700  -18.4700   70.6300 C   0  0  0  0  0  3  0  0  0  0  0  0
   15.2730  -16.4200   69.2400 C   0  0  0  0  0  3  0  0  0  0  0  0
   15.9260  -16.4610   67.8290 C   0  0  0  0  0  2  0  0  0  0  0  0
   16.2090  -17.8570   67.2540 C   0  0  0  0  0  3  0  0  0  0  0  0
   15.8430  -18.2860   65.9660 C   0  0  0  0  0  2  0  0  0  0  0  0
   16.1320  -19.5750   65.4950 C   0  0  0  0  0  2  0  0  0  0  0  0
   16.7920  -20.4840   66.2990 C   0  0  0  0  0  2  0  0  0  0  0  0
   17.1670  -20.0980   67.5790 C   0  0  0  0  0  2  0  0  0  0  0  0
   16.8710  -18.8100   68.0220 C   0  0  0  0  0  2  0  0  0  0  0  0
   14.4050  -15.1240   69.3870 C   0  0  0  0  0  3  0  0  0  0  0  0
   13.4600  -15.2170   70.6160 C   0  0  0  0  0  2  0  0  0  0  0  0
   14.1880  -14.0860   72.7130 C   0  0  0  0  0  3  0  0  0  0  0  0
   13.0450  -14.1600   73.8050 C   0  0  0  0  0  3  0  0  0  0  0  0
   13.3280  -13.3220   75.0460 C   0  0  0  0  0  1  0  0  0  0  0  0
   15.6310  -13.7510   73.2810 C   0  0  0  0  0  3  0  0  0  0  0  0
   17.8820  -12.6090   73.1610 C   0  0  0  0  0  2  0  0  0  0  0  0
   18.3610  -11.1340   73.1600 C   0  0  0  0  0  3  0  0  0  0  0  0
   19.8610  -11.0440   72.8330 C   0  0  0  0  0  1  0  0  0  0  0  0
   17.5630  -10.2810   72.1850 C   0  0  0  0  0  1  0  0  0  0  0  0
   13.2610  -20.3850   69.4350 C   0  0  0  0  0  2  0  0  0  0  0  0
   12.4980  -21.5440   69.2700 C   0  0  0  0  0  3  0  0  0  0  0  0
   12.3050  -22.1670   67.8900 C   0  0  0  0  0  3  0  0  0  0  0  0
   12.0810  -21.7950   65.3000 C   0  0  0  0  0  3  0  0  0  0  0  0
   13.1800  -21.1440   64.4470 C   0  0  0  0  0  1  0  0  0  0  0  0
   10.7010  -21.3440   64.7770 C   0  0  0  0  0  3  0  0  0  0  0  0
    9.7400  -22.2800   64.3750 C   0  0  0  0  0  2  0  0  0  0  0  0
    8.4830  -21.8820   63.9060 C   0  0  0  0  0  2  0  0  0  0  0  0
    8.1500  -20.5360   63.8350 C   0  0  0  0  0  2  0  0  0  0  0  0
    9.0860  -19.5940   64.2360 C   0  0  0  0  0  2  0  0  0  0  0  0
   10.3310  -20.0050   64.7010 C   0  0  0  0  0  2  0  0  0  0  0  0
   11.9270  -22.0530   70.4380 C   0  0  0  0  0  2  0  0  0  0  0  0
   11.4140  -22.0700   72.9390 N   0  0  0  0  0  0  0  0  0  0  0  0
   14.4450  -17.6210   69.5160 N   0  0  0  0  0  2  0  0  0  0  0  0
   14.1270  -15.3340   71.9250 N   0  0  0  0  0  2  0  0  0  0  0  0
   16.5210  -12.8820   72.6410 N   0  0  0  0  0  2  0  0  0  0  0  0
   12.2730  -21.4050   66.7150 N   0  0  0  0  0  2  0  0  0  0  0  0
   10.1910  -24.2990   72.7380 O   0  0  0  0  0  1  0  0  0  0  0  0
    9.1050  -22.6060   74.0180 O   0  0  0  0  0  1  0  0  0  0  0  0
   15.2790  -14.0460   69.5890 O   0  0  0  0  0  1  0  0  0  0  0  0
   12.8740  -15.5050   74.1650 O   0  0  0  0  0  1  0  0  0  0  0  0
   16.0230  -14.3250   74.3110 O   0  0  0  0  0  1  0  0  0  0  0  0
   15.0840  -18.1830   71.6120 O   0  0  0  0  0  1  0  0  0  0  0  0
   12.1640  -23.3940   67.7720 O   0  0  0  0  0  1  0  0  0  0  0  0
    9.8970  -22.9240   72.8860 S   0  0  0  0  0  4  0  0  0  0  0  0
  1 37  1  0
  2 49  1  0
  3  4  1  0
  3 36  1  0
  3 37  1  0
  4  5  1  0
  5  6  1  0
  5 25  1  0
  6 38  1  0
  6 47  1  0
  7  8  1  0
  7 15  1  0
  7 38  1  0
  8  9  1  0
  9 10  1  0
  9 14  1  0
 10 11  1  0
 11 12  1  0
 12 13  1  0
 13 14  1  0
 15 16  1  0
 15 44  1  0
 16 39  1  0
 17 18  1  0
 17 20  1  0
 17 39  1  0
 18 19  1  0
 18 45  1  0
 20 40  1  0
 20 46  1  0
 21 22  1  0
 21 40  1  0
 22 23  1  0
 22 24  1  0
 25 26  1  0
 26 27  1  0
 26 36  1  0
 27 41  1  0
 27 48  1  0
 28 29  1  0
 28 30  1  0
 28 41  1  0
 30 31  1  0
 30 35  1  0
 31 32  1  0
 32 33  1  0
 33 34  1  0
 34 35  1  0
 37 49  1  0
 42 49  1  0
 43 49  1  0
M  END
$$$$
