5f00_A_5T8_504
     RDKit          3D

 26 29  0  0  0  0  0  0  0  0999 V2000
  -16.2580   39.8530    9.0050 C   0  0  0  0  0  0  0  0  0  0  0  0
  -17.9540   40.5440    7.2880 C   0  0  0  0  0  2  0  0  0  0  0  0
  -17.6710   39.9480    8.4890 C   0  0  0  0  0  3  0  0  0  0  0  0
  -18.7080   39.4380    9.2380 C   0  0  0  0  0  2  0  0  0  0  0  0
  -16.0530   38.5310    9.7560 C   0  0  0  0  0  1  0  0  0  0  0  0
  -20.4960   42.1170    5.1900 C   0  0  0  0  0  3  0  0  0  0  0  0
  -21.6020   42.4350    5.9620 C   0  0  0  0  0  2  0  0  0  0  0  0
  -22.5300   43.3480    5.4610 C   0  0  0  0  0  2  0  0  0  0  0  0
  -22.4030   43.9310    4.2290 C   0  0  0  0  0  2  0  0  0  0  0  0
  -20.3310   42.7070    3.9190 C   0  0  0  0  0  3  0  0  0  0  0  0
  -21.2890   43.6200    3.4320 C   0  0  0  0  0  3  0  0  0  0  0  0
  -21.0750   44.2030    2.1530 C   0  0  0  0  0  2  0  0  0  0  0  0
  -19.9450   43.8370    1.4550 C   0  0  0  0  0  3  0  0  0  0  0  0
  -19.0590   42.9260    1.9970 C   0  0  0  0  0  2  0  0  0  0  0  0
  -14.6830   40.9910    7.5780 C   0  0  0  0  0  3  0  0  0  0  0  0
  -14.8530   42.2880    8.3270 C   0  0  0  0  0  2  0  0  0  0  0  0
  -16.0380   41.0190    9.9890 C   0  0  0  0  0  2  0  0  0  0  0  0
  -20.0190   39.5250    8.7990 C   0  0  0  0  0  2  0  0  0  0  0  0
  -20.3150   40.1330    7.5960 C   0  0  0  0  0  2  0  0  0  0  0  0
  -19.2640   40.6480    6.8390 C   0  0  0  0  0  3  0  0  0  0  0  0
  -19.5950   44.4780   -0.1180 Cl  0  0  0  0  0  0  0  0  0  0  0  0
  -13.8210   40.9410    6.5080 N   0  0  0  0  0  1  0  0  0  0  0  0
  -19.4930   41.2450    5.6000 N   0  0  0  0  0  2  0  0  0  0  0  0
  -15.3210   39.9170    7.8790 N   0  0  0  0  0  2  0  0  0  0  0  0
  -19.2680   42.3990    3.1720 N   0  0  0  0  0  2  0  0  0  0  0  0
  -15.9780   42.2500    9.2480 O   0  0  0  0  0  0  0  0  0  0  0  0
  1  3  1  0
  1  5  1  0
  1 17  1  0
  1 24  1  0
  2  3  1  0
  2 20  1  0
  3  4  1  0
  4 18  1  0
  6  7  1  0
  6 10  1  0
  6 23  1  0
  7  8  1  0
  8  9  1  0
  9 11  1  0
 10 11  1  0
 10 25  1  0
 11 12  1  0
 12 13  1  0
 13 14  1  0
 13 21  1  0
 14 25  1  0
 15 16  1  0
 15 22  1  0
 15 24  1  0
 16 26  1  0
 17 26  1  0
 18 19  1  0
 19 20  1  0
 20 23  1  0
M  END
$$$$
