5f01_A_5T7_504
     RDKit          3D

 27 30  0  0  0  0  0  0  0  0999 V2000
  -16.8990   39.1970    8.8810 C   0  0  0  0  0  0  0  0  0  0  0  0
  -20.0300   40.3600    6.7680 C   0  0  0  0  0  3  0  0  0  0  0  0
  -16.6250   37.9020    9.6450 C   0  0  0  0  0  1  0  0  0  0  0  0
  -21.0570   42.0090    5.2650 C   0  0  0  0  0  3  0  0  0  0  0  0
  -22.1680   42.3770    6.0020 C   0  0  0  0  0  2  0  0  0  0  0  0
  -23.1210   43.2270    5.4250 C   0  0  0  0  0  2  0  0  0  0  0  0
  -16.5990   40.4150    9.7650 C   0  0  0  0  0  0  0  0  0  0  0  0
  -22.9840   43.7250    4.1610 C   0  0  0  0  0  2  0  0  0  0  0  0
  -20.8900   42.5110    3.9730 C   0  0  0  0  0  3  0  0  0  0  0  0
  -21.8480   43.3710    3.4060 C   0  0  0  0  0  3  0  0  0  0  0  0
  -21.6380   43.8420    2.0900 C   0  0  0  0  0  2  0  0  0  0  0  0
  -20.4940   43.4320    1.4420 C   0  0  0  0  0  3  0  0  0  0  0  0
  -19.5910   42.5870    2.0660 C   0  0  0  0  0  2  0  0  0  0  0  0
  -16.6340   41.6770    8.9050 C   0  0  0  0  0  2  0  0  0  0  0  0
  -15.3640   40.3640    7.4110 C   0  0  0  0  0  3  0  0  0  0  0  0
  -18.7160   39.6870    7.0340 C   0  0  0  0  0  3  0  0  0  0  0  0
  -18.7880   38.1930    7.3540 C   0  0  0  0  0  2  0  0  0  0  0  0
  -18.3600   39.1970    8.4280 C   0  0  0  0  0  3  0  0  0  0  0  0
  -20.1180   43.9890   -0.1510 Cl  0  0  0  0  0  0  0  0  0  0  0  0
  -17.5740   40.5320   10.7570 F   0  0  0  0  0  0  0  0  0  0  0  0
  -15.3590   40.2360   10.3930 F   0  0  0  0  0  0  0  0  0  0  0  0
  -20.0270   41.2100    5.7460 N   0  0  0  0  0  2  0  0  0  0  0  0
  -14.5280   40.3260    6.3310 N   0  0  0  0  0  1  0  0  0  0  0  0
  -19.8050   42.1410    3.2720 N   0  0  0  0  0  2  0  0  0  0  0  0
  -15.9790   39.2740    7.7400 N   0  0  0  0  0  2  0  0  0  0  0  0
  -21.0280   40.1410    7.4430 O   0  0  0  0  0  1  0  0  0  0  0  0
  -15.4900   41.5550    8.0190 O   0  0  0  0  0  0  0  0  0  0  0  0
  1  3  1  0
  1  7  1  0
  1 18  1  0
  1 25  1  0
  2 16  1  0
  2 22  1  0
  2 26  1  0
  4  5  1  0
  4  9  1  0
  4 22  1  0
  5  6  1  0
  6  8  1  0
  7 14  1  0
  7 20  1  0
  7 21  1  0
  8 10  1  0
  9 10  1  0
  9 24  1  0
 10 11  1  0
 11 12  1  0
 12 13  1  0
 12 19  1  0
 13 24  1  0
 14 27  1  0
 15 23  1  0
 15 25  1  0
 15 27  1  0
 16 17  1  0
 16 18  1  0
 17 18  1  0
M  END
$$$$
