5hdu_B_60W_502
     RDKit          3D

 34 38  0  0  0  0  0  0  0  0999 V2000
   18.3140   33.6860   53.3430 C   0  0  0  0  0  2  0  0  0  0  0  0
   17.6920   34.2330   54.4460 C   0  0  0  0  0  3  0  0  0  0  0  0
   22.2790   35.5240   54.8550 C   0  0  0  0  0  2  0  0  0  0  0  0
   24.6970   35.7670   55.2150 C   0  0  0  0  0  3  0  0  0  0  0  0
   25.7870   37.3310   53.9860 C   0  0  0  0  0  3  0  0  0  0  0  0
   24.5160   38.8930   52.7200 C   0  0  0  0  0  1  0  0  0  0  0  0
   26.9830   36.9510   54.5700 C   0  0  0  0  0  3  0  0  0  0  0  0
   26.9420   35.9620   55.5400 C   0  0  0  0  0  2  0  0  0  0  0  0
   16.2180   34.2440   54.6650 C   0  0  0  0  0  3  0  0  0  0  0  0
   15.6880   34.8980   55.7740 C   0  0  0  0  0  2  0  0  0  0  0  0
   14.3310   34.7830   56.0740 C   0  0  0  0  0  3  0  0  0  0  0  0
   13.4970   34.0140   55.2660 C   0  0  0  0  0  2  0  0  0  0  0  0
   18.6700   34.7520   55.3960 C   0  0  0  0  0  2  0  0  0  0  0  0
   14.0200   33.3770   54.1550 C   0  0  0  0  0  2  0  0  0  0  0  0
   15.3660   33.4990   53.8440 C   0  0  0  0  0  2  0  0  0  0  0  0
   13.8090   35.4240   57.2500 C   0  0  0  0  0  2  0  0  0  0  0  0
   19.9480   34.5740   54.9580 C   0  0  0  0  0  3  0  0  0  0  0  0
   21.2010   34.8680   55.7370 C   0  0  0  0  0  0  0  0  0  0  0  0
   20.6560   35.2030   58.1360 C   0  0  0  0  0  3  0  0  0  0  0  0
   20.1970   33.2810   59.6240 C   0  0  0  0  0  1  0  0  0  0  0  0
   21.3170   32.9740   57.4770 C   0  0  0  0  0  3  0  0  0  0  0  0
   21.9290   33.5740   56.2210 C   0  0  0  0  0  3  0  0  0  0  0  0
   23.3790   34.0370   56.4530 C   0  0  0  0  0  2  0  0  0  0  0  0
   28.1290   37.5060   54.1380 F   0  0  0  0  0  0  0  0  0  0  0  0
   20.9640   35.6930   56.9370 N   0  0  0  0  0  2  0  0  0  0  0  0
   20.3720   35.9820   59.1160 N   0  0  0  0  0  1  0  0  0  0  0  0
   20.6940   33.8400   58.3570 N   0  0  0  0  0  0  0  0  0  0  0  0
   23.5250   35.1600   55.5250 N   0  0  0  0  0  0  0  0  0  0  0  0
   24.6410   36.7390   54.2760 N   0  0  0  0  0  2  0  0  0  0  0  0
   25.7940   35.3570   55.8830 N   0  0  0  0  0  2  0  0  0  0  0  0
   13.4290   35.9400   58.1900 N   0  0  0  0  0  1  0  0  0  0  0  0
   21.3870   31.7840   57.6960 O   0  0  0  0  0  1  0  0  0  0  0  0
   25.7870   38.4180   53.1890 O   0  0  0  0  0  0  0  0  0  0  0  0
   20.0190   33.8160   53.4190 S   0  0  0  0  0  0  0  0  0  0  0  0
  1  2  1  0
  1 34  1  0
  2  9  1  0
  2 13  1  0
  3 18  1  0
  3 28  1  0
  4 28  1  0
  4 29  1  0
  4 30  1  0
  5  7  1  0
  5 29  1  0
  5 33  1  0
  6 33  1  0
  7  8  1  0
  7 24  1  0
  8 30  1  0
  9 10  1  0
  9 15  1  0
 10 11  1  0
 11 12  1  0
 11 16  1  0
 12 14  1  0
 13 17  1  0
 14 15  1  0
 16 31  1  0
 17 18  1  0
 17 34  1  0
 18 22  1  0
 18 25  1  0
 19 25  1  0
 19 26  1  0
 19 27  1  0
 20 27  1  0
 21 22  1  0
 21 27  1  0
 21 32  1  0
 22 23  1  0
 23 28  1  0
M  END
$$$$
