5hdz_A_954_501
     RDKit          3D

 29 32  0  0  0  0  0  0  0  0999 V2000
   22.8140   10.6260   20.7730 C   0  0  0  0  0  3  0  0  0  0  0  0
   22.9740   11.2780   19.5340 C   0  0  0  0  0  2  0  0  0  0  0  0
   19.6910   11.6260   22.5580 C   0  0  0  0  0  2  0  0  0  0  0  0
   20.2700    9.9680   20.8830 C   0  0  0  0  0  2  0  0  0  0  0  0
   17.8410   10.3150   21.6860 C   0  0  0  0  0  3  0  0  0  0  0  0
   16.0380    9.2200   20.8190 C   0  0  0  0  0  3  0  0  0  0  0  0
   15.4780    8.3040   19.7720 C   0  0  0  0  0  1  0  0  0  0  0  0
   15.1810    9.8610   21.7660 C   0  0  0  0  0  3  0  0  0  0  0  0
   15.7670   10.7830   22.6060 C   0  0  0  0  0  3  0  0  0  0  0  0
   15.7420   12.9700   24.3140 C   0  0  0  0  0  1  0  0  0  0  0  0
   24.3010   11.2790   19.0680 C   0  0  0  0  0  2  0  0  0  0  0  0
   25.1880   10.6370   19.9440 C   0  0  0  0  0  3  0  0  0  0  0  0
   26.5930   10.5280   19.8420 C   0  0  0  0  0  2  0  0  0  0  0  0
   21.5820   10.4680   21.6060 C   0  0  0  0  0  0  0  0  0  0  0  0
   22.3790   10.1330   23.9350 C   0  0  0  0  0  3  0  0  0  0  0  0
   23.2930   12.0690   25.1960 C   0  0  0  0  0  1  0  0  0  0  0  0
   21.8800   12.4260   23.2560 C   0  0  0  0  0  3  0  0  0  0  0  0
   21.1180   11.8690   22.0680 C   0  0  0  0  0  3  0  0  0  0  0  0
   13.8940    9.5080   21.9390 F   0  0  0  0  0  0  0  0  0  0  0  0
   27.7310   10.4250   19.8240 N   0  0  0  0  0  1  0  0  0  0  0  0
   21.8990    9.6500   22.7870 N   0  0  0  0  0  2  0  0  0  0  0  0
   22.8200    9.3500   24.8880 N   0  0  0  0  0  1  0  0  0  0  0  0
   22.5050   11.5190   24.0870 N   0  0  0  0  0  0  0  0  0  0  0  0
   19.1980   10.5610   21.6870 N   0  0  0  0  0  0  0  0  0  0  0  0
   17.3660    9.4360   20.7820 N   0  0  0  0  0  2  0  0  0  0  0  0
   17.0850   11.0010   22.5850 N   0  0  0  0  0  2  0  0  0  0  0  0
   21.8830   13.6220   23.4880 O   0  0  0  0  0  1  0  0  0  0  0  0
   24.3530   10.0280   21.3270 S   0  0  0  0  0  0  0  0  0  0  0  0
   14.6830   11.6670   23.6690 S   0  0  0  0  0  0  0  0  0  0  0  0
  1  2  1  0
  1 14  1  0
  1 28  1  0
  2 11  1  0
  3 18  1  0
  3 24  1  0
  4 14  1  0
  4 24  1  0
  5 24  1  0
  5 25  1  0
  5 26  1  0
  6  7  1  0
  6  8  1  0
  6 25  1  0
  8  9  1  0
  8 19  1  0
  9 26  1  0
  9 29  1  0
 10 29  1  0
 11 12  1  0
 12 13  1  0
 12 28  1  0
 13 20  1  0
 14 18  1  0
 14 21  1  0
 15 21  1  0
 15 22  1  0
 15 23  1  0
 16 23  1  0
 17 18  1  0
 17 23  1  0
 17 27  1  0
M  END
$$$$
