5he4_A_60T_501
     RDKit          3D

 30 33  0  0  0  0  0  0  0  0999 V2000
   16.0940    8.4820   20.1870 C   0  0  0  0  0  3  0  0  0  0  0  0
   16.1430    9.4560   21.1910 C   0  0  0  0  0  3  0  0  0  0  0  0
   21.2810   11.7360   21.8480 C   0  0  0  0  0  3  0  0  0  0  0  0
   19.7910   11.3990   22.0540 C   0  0  0  0  0  2  0  0  0  0  0  0
   23.2240   10.4860   20.6230 C   0  0  0  0  0  3  0  0  0  0  0  0
   23.3440   11.3000   19.4670 C   0  0  0  0  0  3  0  0  0  0  0  0
   24.4990   11.4430   18.7340 C   0  0  0  0  0  2  0  0  0  0  0  0
   25.6290   10.7400   19.1300 C   0  0  0  0  0  2  0  0  0  0  0  0
   25.5980    9.8980   20.2310 C   0  0  0  0  0  2  0  0  0  0  0  0
   24.4250    9.7890   20.9420 C   0  0  0  0  0  3  0  0  0  0  0  0
   14.9120    9.9040   21.9240 C   0  0  0  0  0  1  0  0  0  0  0  0
   18.4030    9.6340   20.8760 C   0  0  0  0  0  3  0  0  0  0  0  0
   17.2890    8.1230   19.5930 C   0  0  0  0  0  3  0  0  0  0  0  0
   18.5370    6.4990   18.3800 C   0  0  0  0  0  1  0  0  0  0  0  0
   20.8000    9.7740   20.5290 C   0  0  0  0  0  2  0  0  0  0  0  0
   21.9040   10.3710   21.4130 C   0  0  0  0  0  0  0  0  0  0  0  0
   22.4240   10.0860   23.8240 C   0  0  0  0  0  3  0  0  0  0  0  0
   23.1300   12.0270   25.1900 C   0  0  0  0  0  1  0  0  0  0  0  0
   21.9100   12.3300   23.0990 C   0  0  0  0  0  3  0  0  0  0  0  0
   14.9390    7.9490   19.7550 F   0  0  0  0  0  0  0  0  0  0  0  0
   22.2300   11.9190   19.0320 F   0  0  0  0  0  0  0  0  0  0  0  0
   24.3940    8.9430   21.9840 F   0  0  0  0  0  0  0  0  0  0  0  0
   17.3060   10.0290   21.5490 N   0  0  0  0  0  2  0  0  0  0  0  0
   18.4350    8.7030   19.9020 N   0  0  0  0  0  2  0  0  0  0  0  0
   19.5960   10.1790   21.2500 N   0  0  0  0  0  0  0  0  0  0  0  0
   21.9870    9.5840   22.6580 N   0  0  0  0  0  2  0  0  0  0  0  0
   22.7820    9.3250   24.8070 N   0  0  0  0  0  1  0  0  0  0  0  0
   22.5260   11.4560   23.9730 N   0  0  0  0  0  0  0  0  0  0  0  0
   17.2720    7.0580   18.7650 O   0  0  0  0  0  0  0  0  0  0  0  0
   21.8800   13.5310   23.3090 O   0  0  0  0  0  1  0  0  0  0  0  0
  1  2  1  0
  1 13  1  0
  1 20  1  0
  2 11  1  0
  2 23  1  0
  3  4  1  0
  3 16  1  0
  3 19  1  0
  4 25  1  0
  5  6  1  0
  5 10  1  0
  5 16  1  0
  6  7  1  0
  6 21  1  0
  7  8  1  0
  8  9  1  0
  9 10  1  0
 10 22  1  0
 12 23  1  0
 12 24  1  0
 12 25  1  0
 13 24  1  0
 13 29  1  0
 14 29  1  0
 15 16  1  0
 15 25  1  0
 16 26  1  0
 17 26  1  0
 17 27  1  0
 17 28  1  0
 18 28  1  0
 19 28  1  0
 19 30  1  0
M  END
$$$$
