5he7_A_60X_501
     RDKit          3D

 30 33  0  0  0  0  0  0  0  0999 V2000
   16.1940    8.4760   20.2770 C   0  0  0  0  0  3  0  0  0  0  0  0
   16.2630    9.4130   21.3390 C   0  0  0  0  0  3  0  0  0  0  0  0
   21.3990   11.6510   21.9780 C   0  0  0  0  0  3  0  0  0  0  0  0
   19.9270   11.2800   22.2090 C   0  0  0  0  0  2  0  0  0  0  0  0
   23.3540   10.5040   20.7500 C   0  0  0  0  0  3  0  0  0  0  0  0
   24.5410    9.9120   21.1800 C   0  0  0  0  0  2  0  0  0  0  0  0
   25.7270   10.0690   20.4840 C   0  0  0  0  0  2  0  0  0  0  0  0
   25.7090   10.8200   19.3390 C   0  0  0  0  0  3  0  0  0  0  0  0
   24.5770   11.4080   18.8440 C   0  0  0  0  0  2  0  0  0  0  0  0
   23.4270   11.2370   19.5680 C   0  0  0  0  0  3  0  0  0  0  0  0
   15.0420    9.8850   22.0730 C   0  0  0  0  0  1  0  0  0  0  0  0
   18.5360    9.5230   21.0410 C   0  0  0  0  0  3  0  0  0  0  0  0
   17.3890    8.1170   19.6720 C   0  0  0  0  0  3  0  0  0  0  0  0
   18.6000    6.4570   18.4840 C   0  0  0  0  0  1  0  0  0  0  0  0
   20.9450    9.6680   20.6830 C   0  0  0  0  0  2  0  0  0  0  0  0
   22.0500   10.3100   21.5360 C   0  0  0  0  0  0  0  0  0  0  0  0
   22.5770   10.0110   23.9400 C   0  0  0  0  0  3  0  0  0  0  0  0
   23.2690   11.9660   25.2990 C   0  0  0  0  0  1  0  0  0  0  0  0
   22.0040   12.2480   23.2340 C   0  0  0  0  0  3  0  0  0  0  0  0
   15.0380    7.9380   19.8550 F   0  0  0  0  0  0  0  0  0  0  0  0
   26.8740   11.0130   18.6700 F   0  0  0  0  0  0  0  0  0  0  0  0
   22.2970   11.7980   19.0870 F   0  0  0  0  0  0  0  0  0  0  0  0
   17.4430    9.9240   21.7320 N   0  0  0  0  0  2  0  0  0  0  0  0
   18.5470    8.6450   20.0210 N   0  0  0  0  0  2  0  0  0  0  0  0
   19.7210   10.1090   21.3470 N   0  0  0  0  0  0  0  0  0  0  0  0
   22.2270    9.4960   22.7400 N   0  0  0  0  0  2  0  0  0  0  0  0
   22.9230    9.2410   24.9090 N   0  0  0  0  0  1  0  0  0  0  0  0
   22.6200   11.3810   24.1140 N   0  0  0  0  0  0  0  0  0  0  0  0
   17.3570    7.0960   18.7960 O   0  0  0  0  0  0  0  0  0  0  0  0
   21.9220   13.4390   23.4580 O   0  0  0  0  0  1  0  0  0  0  0  0
  1  2  1  0
  1 13  1  0
  1 20  1  0
  2 11  1  0
  2 23  1  0
  3  4  1  0
  3 16  1  0
  3 19  1  0
  4 25  1  0
  5  6  1  0
  5 10  1  0
  5 16  1  0
  6  7  1  0
  7  8  1  0
  8  9  1  0
  8 21  1  0
  9 10  1  0
 10 22  1  0
 12 23  1  0
 12 24  1  0
 12 25  1  0
 13 24  1  0
 13 29  1  0
 14 29  1  0
 15 16  1  0
 15 25  1  0
 16 26  1  0
 17 26  1  0
 17 27  1  0
 17 28  1  0
 18 28  1  0
 19 28  1  0
 19 30  1  0
M  END
$$$$
