5htz_B_66J_501
     RDKit          3D

 26 28  0  0  0  0  0  0  0  0999 V2000
   16.9420   34.3480   55.1700 C   0  0  0  0  0  3  0  0  0  0  0  0
   21.0600   35.3710   59.0710 C   0  0  0  0  0  3  0  0  0  0  0  0
   22.0030   34.9080   56.7650 C   0  0  0  0  0  0  0  0  0  0  0  0
   22.8790   35.7390   55.8280 C   0  0  0  0  0  1  0  0  0  0  0  0
   20.3340   33.4070   60.5190 C   0  0  0  0  0  1  0  0  0  0  0  0
   16.2070   34.9800   56.1570 C   0  0  0  0  0  2  0  0  0  0  0  0
   18.3810   34.2310   55.2760 C   0  0  0  0  0  3  0  0  0  0  0  0
   19.2600   33.3770   54.6370 C   0  0  0  0  0  2  0  0  0  0  0  0
   20.6190   33.5020   55.0420 C   0  0  0  0  0  3  0  0  0  0  0  0
   14.0770   35.6380   57.1310 C   0  0  0  0  0  2  0  0  0  0  0  0
   13.4520   36.1600   58.0120 C   0  0  0  0  0  2  0  0  0  0  0  0
   12.6650   36.7890   59.0810 C   0  0  0  0  0  1  0  0  0  0  0  0
   14.8300   35.0040   56.0890 C   0  0  0  0  0  3  0  0  0  0  0  0
   14.2200   34.3600   55.0270 C   0  0  0  0  0  2  0  0  0  0  0  0
   16.2320   33.7520   54.1390 C   0  0  0  0  0  2  0  0  0  0  0  0
   20.7870   34.4520   56.0330 C   0  0  0  0  0  3  0  0  0  0  0  0
   22.8180   33.7320   57.2800 C   0  0  0  0  0  2  0  0  0  0  0  0
   21.8690   32.5380   54.3700 Cl  0  0  0  0  0  0  0  0  0  0  0  0
   21.0360   33.9700   59.3380 N   0  0  0  0  0  0  0  0  0  0  0  0
   21.7420   35.7650   57.9330 N   0  0  0  0  0  2  0  0  0  0  0  0
   20.4660   36.1800   59.8930 N   0  0  0  0  0  1  0  0  0  0  0  0
   14.8950   33.7370   54.0420 N   0  0  0  0  0  2  0  0  0  0  0  0
   22.8760   32.1660   59.3660 O   0  0  0  0  0  1  0  0  0  0  0  0
   20.9260   31.9630   57.7800 O   0  0  0  0  0  1  0  0  0  0  0  0
   19.2640   35.1660   56.4100 S   0  0  0  0  0  0  0  0  0  0  0  0
   21.9040   32.7660   58.4710 S   0  0  0  0  0  4  0  0  0  0  0  0
  1  6  1  0
  1  7  1  0
  1 15  1  0
  2 19  1  0
  2 20  1  0
  2 21  1  0
  3  4  1  0
  3 16  1  0
  3 17  1  0
  3 20  1  0
  5 19  1  0
  6 13  1  0
  7  8  1  0
  7 25  1  0
  8  9  1  0
  9 16  1  0
  9 18  1  0
 10 11  1  0
 10 13  1  0
 11 12  1  0
 13 14  1  0
 14 22  1  0
 15 22  1  0
 16 25  1  0
 17 26  1  0
 19 26  1  0
 23 26  1  0
 24 26  1  0
M  END
$$$$
