5htz_A_66J_501
     RDKit          3D

 26 28  0  0  0  0  0  0  0  0999 V2000
   26.4160   10.7780   19.8250 C   0  0  0  0  0  3  0  0  0  0  0  0
   22.2270    9.8980   23.7700 C   0  0  0  0  0  3  0  0  0  0  0  0
   21.3430   10.3480   21.4520 C   0  0  0  0  0  0  0  0  0  0  0  0
   20.4220    9.5370   20.5590 C   0  0  0  0  0  1  0  0  0  0  0  0
   23.2590   11.8860   24.9900 C   0  0  0  0  0  1  0  0  0  0  0  0
   27.1300   10.1830   20.8450 C   0  0  0  0  0  2  0  0  0  0  0  0
   24.9770   10.9010   19.9030 C   0  0  0  0  0  3  0  0  0  0  0  0
   24.0990   11.7140   19.2150 C   0  0  0  0  0  2  0  0  0  0  0  0
   22.7410   11.6280   19.6310 C   0  0  0  0  0  3  0  0  0  0  0  0
   29.2180    9.5310   21.8840 C   0  0  0  0  0  2  0  0  0  0  0  0
   29.7990    9.0050   22.7940 C   0  0  0  0  0  2  0  0  0  0  0  0
   30.5380    8.3470   23.8640 C   0  0  0  0  0  1  0  0  0  0  0  0
   28.5050   10.1420   20.8110 C   0  0  0  0  0  3  0  0  0  0  0  0
   29.1480   10.7410   19.7480 C   0  0  0  0  0  2  0  0  0  0  0  0
   27.1540   11.3290   18.7930 C   0  0  0  0  0  2  0  0  0  0  0  0
   22.5740   10.7430   20.6860 C   0  0  0  0  0  3  0  0  0  0  0  0
   20.5420   11.5340   21.9520 C   0  0  0  0  0  2  0  0  0  0  0  0
   21.4950   12.5720   18.9050 Cl  0  0  0  0  0  0  0  0  0  0  0  0
   22.3660   11.3100   23.9600 N   0  0  0  0  0  0  0  0  0  0  0  0
   21.5710    9.5070   22.6230 N   0  0  0  0  0  2  0  0  0  0  0  0
   22.7110    9.0740   24.6390 N   0  0  0  0  0  1  0  0  0  0  0  0
   28.4940   11.3330   18.7320 N   0  0  0  0  0  2  0  0  0  0  0  0
   20.5560   13.1420   24.0110 O   0  0  0  0  0  1  0  0  0  0  0  0
   22.4530   13.3010   22.3580 O   0  0  0  0  0  1  0  0  0  0  0  0
   24.0960   10.0520   21.1010 S   0  0  0  0  0  0  0  0  0  0  0  0
   21.4840   12.5120   23.0880 S   0  0  0  0  0  4  0  0  0  0  0  0
  1  6  1  0
  1  7  1  0
  1 15  1  0
  2 19  1  0
  2 20  1  0
  2 21  1  0
  3  4  1  0
  3 16  1  0
  3 17  1  0
  3 20  1  0
  5 19  1  0
  6 13  1  0
  7  8  1  0
  7 25  1  0
  8  9  1  0
  9 16  1  0
  9 18  1  0
 10 11  1  0
 10 13  1  0
 11 12  1  0
 13 14  1  0
 14 22  1  0
 15 22  1  0
 16 25  1  0
 17 26  1  0
 19 26  1  0
 23 26  1  0
 24 26  1  0
M  END
$$$$
