5hu0_A_66H_502
     RDKit          3D

 28 31  0  0  0  0  0  0  0  0999 V2000
   21.5200   10.4850   21.8930 C   0  0  0  0  0  0  0  0  0  0  0  0
   20.1120   10.3860   21.3180 C   0  0  0  0  0  3  0  0  0  0  0  0
   19.6860    9.2010   20.7360 C   0  0  0  0  0  2  0  0  0  0  0  0
   18.4220    9.0640   20.1960 C   0  0  0  0  0  2  0  0  0  0  0  0
   17.5530   10.1370   20.2190 C   0  0  0  0  0  2  0  0  0  0  0  0
   17.9450   11.3380   20.7890 C   0  0  0  0  0  2  0  0  0  0  0  0
   19.2190   11.4520   21.3220 C   0  0  0  0  0  2  0  0  0  0  0  0
   23.9370   10.2410   21.2470 C   0  0  0  0  0  2  0  0  0  0  0  0
   25.0010   10.3540   20.3810 C   0  0  0  0  0  3  0  0  0  0  0  0
   24.7780   10.8350   19.1040 C   0  0  0  0  0  2  0  0  0  0  0  0
   23.4970   11.2000   18.7290 C   0  0  0  0  0  2  0  0  0  0  0  0
   21.7180   11.6250   22.8620 C   0  0  0  0  0  3  0  0  0  0  0  0
   22.4390   11.0870   19.6100 C   0  0  0  0  0  2  0  0  0  0  0  0
   27.5150   10.3720   20.4590 C   0  0  0  0  0  3  0  0  0  0  0  0
   28.5790    9.9620   21.3400 C   0  0  0  0  0  3  0  0  0  0  0  0
   29.4340    8.8280   23.0380 C   0  0  0  0  0  2  0  0  0  0  0  0
   30.4630    9.5680   22.5100 C   0  0  0  0  0  2  0  0  0  0  0  0
   29.9180   10.2990   21.4180 C   0  0  0  0  0  2  0  0  0  0  0  0
   22.1960    9.7140   23.9940 C   0  0  0  0  0  3  0  0  0  0  0  0
   22.5100   11.9040   25.2120 C   0  0  0  0  0  1  0  0  0  0  0  0
   22.6430   10.6010   20.8880 C   0  0  0  0  0  3  0  0  0  0  0  0
   26.2560    9.9560   20.8700 N   0  0  0  0  0  2  0  0  0  0  0  0
   22.1940   11.0880   24.0470 N   0  0  0  0  0  0  0  0  0  0  0  0
   21.7760    9.3340   22.7530 N   0  0  0  0  0  2  0  0  0  0  0  0
   22.5860    8.9330   24.9480 N   0  0  0  0  0  1  0  0  0  0  0  0
   27.7380   11.0020   19.4430 O   0  0  0  0  0  1  0  0  0  0  0  0
   28.3030    9.0630   22.3190 O   0  0  0  0  0  0  0  0  0  0  0  0
   21.5190   12.8070   22.6000 O   0  0  0  0  0  1  0  0  0  0  0  0
  1  2  1  0
  1 12  1  0
  1 21  1  0
  1 24  1  0
  2  3  1  0
  2  7  1  0
  3  4  1  0
  4  5  1  0
  5  6  1  0
  6  7  1  0
  8  9  1  0
  8 21  1  0
  9 10  1  0
  9 22  1  0
 10 11  1  0
 11 13  1  0
 12 23  1  0
 12 28  1  0
 13 21  1  0
 14 15  1  0
 14 22  1  0
 14 26  1  0
 15 18  1  0
 15 27  1  0
 16 17  1  0
 16 27  1  0
 17 18  1  0
 19 23  1  0
 19 24  1  0
 19 25  1  0
 20 23  1  0
M  END
$$$$
