5hu1_A_66F_501
     RDKit          3D

 28 30  0  0  0  0  0  0  0  0999 V2000
   22.7360   10.3830   20.7720 C   0  0  0  0  0  3  0  0  0  0  0  0
   23.0610   11.6570   25.2910 C   0  0  0  0  0  1  0  0  0  0  0  0
   24.0310   10.0450   21.1620 C   0  0  0  0  0  2  0  0  0  0  0  0
   25.1380   10.3980   20.4240 C   0  0  0  0  0  3  0  0  0  0  0  0
   24.9950   11.0970   19.2320 C   0  0  0  0  0  2  0  0  0  0  0  0
   23.7170   11.4440   18.8310 C   0  0  0  0  0  2  0  0  0  0  0  0
   22.6180   11.1110   19.5980 C   0  0  0  0  0  3  0  0  0  0  0  0
   21.5330    9.9810   21.6110 C   0  0  0  0  0  0  0  0  0  0  0  0
   31.0160   10.0770   22.0860 C   0  0  0  0  0  2  0  0  0  0  0  0
   30.7510    9.0820   23.0070 C   0  0  0  0  0  3  0  0  0  0  0  0
   29.4780    8.5610   23.0580 C   0  0  0  0  0  2  0  0  0  0  0  0
   28.7600    9.9480   21.3830 C   0  0  0  0  0  3  0  0  0  0  0  0
   30.0090   10.5300   21.2520 C   0  0  0  0  0  2  0  0  0  0  0  0
   27.6420   10.3910   20.5150 C   0  0  0  0  0  3  0  0  0  0  0  0
   20.6500    9.0380   20.7890 C   0  0  0  0  0  1  0  0  0  0  0  0
   20.6560   11.1270   22.0640 C   0  0  0  0  0  2  0  0  0  0  0  0
   22.3680    9.6820   23.8530 C   0  0  0  0  0  3  0  0  0  0  0  0
   21.3770   11.4890   19.1970 F   0  0  0  0  0  0  0  0  0  0  0  0
   31.6990    8.6040   23.8310 F   0  0  0  0  0  0  0  0  0  0  0  0
   26.3820    9.9940   20.9260 N   0  0  0  0  0  2  0  0  0  0  0  0
   28.4820    8.9760   22.2580 N   0  0  0  0  0  2  0  0  0  0  0  0
   22.4280   11.0730   24.0920 N   0  0  0  0  0  0  0  0  0  0  0  0
   21.9140    9.1570   22.7570 N   0  0  0  0  0  2  0  0  0  0  0  0
   22.8110    8.9190   24.9000 N   0  0  0  0  0  1  0  0  0  0  0  0
   20.5700   12.8320   24.0170 O   0  0  0  0  0  1  0  0  0  0  0  0
   22.5710   12.9310   22.4450 O   0  0  0  0  0  1  0  0  0  0  0  0
   27.8770   11.0830   19.5330 O   0  0  0  0  0  1  0  0  0  0  0  0
   21.5520   12.2130   23.1450 S   0  0  0  0  0  4  0  0  0  0  0  0
  1  3  1  0
  1  7  1  0
  1  8  1  0
  2 22  1  0
  3  4  1  0
  4  5  1  0
  4 20  1  0
  5  6  1  0
  6  7  1  0
  7 18  1  0
  8 15  1  0
  8 16  1  0
  8 23  1  0
  9 10  1  0
  9 13  1  0
 10 11  1  0
 10 19  1  0
 11 21  1  0
 12 13  1  0
 12 14  1  0
 12 21  1  0
 14 20  1  0
 14 27  1  0
 16 28  1  0
 17 22  1  0
 17 23  1  0
 17 24  1  0
 22 28  1  0
 25 28  1  0
 26 28  1  0
M  END
$$$$
