5i3v_A_68M_404
     RDKit          3D

 30 32  0  0  0  0  0  0  0  0999 V2000
   68.4800   48.8490    9.6150 C   0  0  0  0  0  3  0  0  0  0  0  0
   70.9580   50.1690   12.1120 C   0  0  0  0  0  3  0  0  0  0  0  0
   66.0790   46.4070    7.9310 C   0  0  0  0  0  2  0  0  0  0  0  0
   64.5930   46.8170    8.1350 C   0  0  0  0  0  3  0  0  0  0  0  0
   64.3360   47.4760    9.5030 C   0  0  0  0  0  3  0  0  0  0  0  0
   63.8820   49.6170   10.6730 C   0  0  0  0  0  2  0  0  0  0  0  0
   65.1280   50.5300   10.6940 C   0  0  0  0  0  2  0  0  0  0  0  0
   65.2210   51.5290   11.8560 C   0  0  0  0  0  0  0  0  0  0  0  0
   63.6250   45.6320    7.9010 C   0  0  0  0  0  1  0  0  0  0  0  0
   65.4440   50.7560   13.1500 C   0  0  0  0  0  1  0  0  0  0  0  0
   66.4150   52.4750   11.6320 C   0  0  0  0  0  1  0  0  0  0  0  0
   68.4100   49.9290    8.7520 C   0  0  0  0  0  3  0  0  0  0  0  0
   63.9430   52.3560   11.9420 C   0  0  0  0  0  1  0  0  0  0  0  0
   70.9310   51.0800   13.1690 C   0  0  0  0  0  3  0  0  0  0  0  0
   71.9590   51.0110   14.1220 C   0  0  0  0  0  2  0  0  0  0  0  0
   72.9650   50.0720   13.9930 C   0  0  0  0  0  2  0  0  0  0  0  0
   72.9630   49.1890   12.9170 C   0  0  0  0  0  2  0  0  0  0  0  0
   69.8360   52.0990   13.3530 C   0  0  0  0  0  1  0  0  0  0  0  0
   66.9010   48.7660    7.3680 C   0  0  0  0  0  3  0  0  0  0  0  0
   66.9240   47.6420    8.1990 C   0  0  0  0  0  3  0  0  0  0  0  0
   67.7410   47.6870    9.3240 C   0  0  0  0  0  2  0  0  0  0  0  0
   69.3290   48.9210   10.7410 C   0  0  0  0  0  2  0  0  0  0  0  0
   70.0460   50.0900   11.0310 C   0  0  0  0  0  3  0  0  0  0  0  0
   69.9690   51.1680   10.1450 C   0  0  0  0  0  2  0  0  0  0  0  0
   69.1410   51.0790    9.0200 C   0  0  0  0  0  2  0  0  0  0  0  0
   67.6140   49.8660    7.6530 N   0  0  0  0  0  2  0  0  0  0  0  0
   66.1420   48.7320    6.2680 N   0  0  0  0  0  1  0  0  0  0  0  0
   64.0490   48.7720    9.4810 N   0  0  0  0  0  2  0  0  0  0  0  0
   71.9600   49.2700   12.0310 N   0  0  0  0  0  2  0  0  0  0  0  0
   64.4070   46.8360   10.5500 O   0  0  0  0  0  1  0  0  0  0  0  0
  1 12  1  0
  1 21  1  0
  1 22  1  0
  2 14  1  0
  2 23  1  0
  2 29  1  0
  3  4  1  0
  3 20  1  0
  4  5  1  0
  4  9  1  0
  5 28  1  0
  5 30  1  0
  6  7  1  0
  6 28  1  0
  7  8  1  0
  8 10  1  0
  8 11  1  0
  8 13  1  0
 12 25  1  0
 12 26  1  0
 14 15  1  0
 14 18  1  0
 15 16  1  0
 16 17  1  0
 17 29  1  0
 19 20  1  0
 19 26  1  0
 19 27  1  0
 20 21  1  0
 22 23  1  0
 23 24  1  0
 24 25  1  0
M  END
$$$$
