5i3y_A_68K_401
     RDKit          3D

 46 50  0  0  0  0  0  0  0  0999 V2000
   17.2190   39.3360  -11.4850 C   0  0  0  0  0  3  0  0  0  0  0  0
   13.3350   43.0010   -8.4170 C   0  0  0  0  0  2  0  0  0  0  0  0
   11.8460   42.7400   -8.7090 C   0  0  0  0  0  2  0  0  0  0  0  0
   11.5800   42.0350  -10.0380 C   0  0  0  0  0  3  0  0  0  0  0  0
   11.1200   39.9290  -11.1430 C   0  0  0  0  0  2  0  0  0  0  0  0
   12.3660   39.0550  -11.3530 C   0  0  0  0  0  2  0  0  0  0  0  0
   12.3760   38.2950  -12.6800 C   0  0  0  0  0  0  0  0  0  0  0  0
   13.6080   37.3880  -12.7460 C   0  0  0  0  0  1  0  0  0  0  0  0
   12.3710   39.3030  -13.8400 C   0  0  0  0  0  1  0  0  0  0  0  0
   11.1600   37.3950  -12.7420 C   0  0  0  0  0  1  0  0  0  0  0  0
   18.0870   39.2660  -12.6020 C   0  0  0  0  0  3  0  0  0  0  0  0
   17.1560   38.2770  -10.5910 C   0  0  0  0  0  2  0  0  0  0  0  0
   19.3230   39.9240  -12.4540 C   0  0  0  0  0  3  0  0  0  0  0  0
   20.2710   39.9170  -13.5030 C   0  0  0  0  0  2  0  0  0  0  0  0
   20.0020   39.2310  -14.6990 C   0  0  0  0  0  2  0  0  0  0  0  0
   18.7800   38.5570  -14.8310 C   0  0  0  0  0  2  0  0  0  0  0  0
   17.8270   38.5680  -13.7870 C   0  0  0  0  0  2  0  0  0  0  0  0
   19.7200   40.7280  -11.1780 C   0  0  0  0  0  2  0  0  0  0  0  0
   20.2870   39.8310  -10.0730 C   0  0  0  0  0  2  0  0  0  0  0  0
   20.1750   40.4290   -8.6690 C   0  0  0  0  0  3  0  0  0  0  0  0
   18.9320   40.5880   -8.0700 C   0  0  0  0  0  2  0  0  0  0  0  0
   18.8480   41.1310   -6.7920 C   0  0  0  0  0  2  0  0  0  0  0  0
   16.3400   38.3070   -9.4570 C   0  0  0  0  0  2  0  0  0  0  0  0
   20.0090   41.4850   -6.1020 C   0  0  0  0  0  3  0  0  0  0  0  0
   21.2380   41.2950   -6.7560 C   0  0  0  0  0  2  0  0  0  0  0  0
   20.8430   42.4090   -4.0700 C   0  0  0  0  0  3  0  0  0  0  0  0
   20.4500   42.9600   -2.7070 C   0  0  0  0  0  3  0  0  0  0  0  0
   19.3040   42.5480   -2.0440 C   0  0  0  0  0  2  0  0  0  0  0  0
   19.0070   43.0610   -0.7850 C   0  0  0  0  0  2  0  0  0  0  0  0
   19.8540   43.9920   -0.2000 C   0  0  0  0  0  3  0  0  0  0  0  0
   21.0190   44.4010   -0.8540 C   0  0  0  0  0  2  0  0  0  0  0  0
   21.3160   43.8780   -2.1070 C   0  0  0  0  0  2  0  0  0  0  0  0
   15.6070   39.4570   -9.1580 C   0  0  0  0  0  3  0  0  0  0  0  0
   15.6770   40.5340  -10.0470 C   0  0  0  0  0  3  0  0  0  0  0  0
   16.4890   40.4830  -11.1910 C   0  0  0  0  0  2  0  0  0  0  0  0
   14.1220   40.6110   -7.7390 C   0  0  0  0  0  3  0  0  0  0  0  0
   14.1350   41.7140   -8.6100 C   0  0  0  0  0  3  0  0  0  0  0  0
   14.9330   41.6680   -9.7600 C   0  0  0  0  0  2  0  0  0  0  0  0
   19.5640   44.4900    1.0180 F   0  0  0  0  0  0  0  0  0  0  0  0
   14.8570   39.5230   -8.0270 N   0  0  0  0  0  2  0  0  0  0  0  0
   11.3270   40.7490   -9.9600 N   0  0  0  0  0  2  0  0  0  0  0  0
   13.3860   40.6330   -6.6210 N   0  0  0  0  0  1  0  0  0  0  0  0
   21.2720   40.7740   -7.9840 N   0  0  0  0  0  2  0  0  0  0  0  0
   19.8600   42.0040   -4.8770 N   0  0  0  0  0  2  0  0  0  0  0  0
   11.6360   42.6230  -11.1050 O   0  0  0  0  0  1  0  0  0  0  0  0
   22.0360   42.3460   -4.3140 O   0  0  0  0  0  1  0  0  0  0  0  0
  1 11  1  0
  1 12  1  0
  1 35  1  0
  2  3  1  0
  2 37  1  0
  3  4  1  0
  4 41  1  0
  4 45  1  0
  5  6  1  0
  5 41  1  0
  6  7  1  0
  7  8  1  0
  7  9  1  0
  7 10  1  0
 11 13  1  0
 11 17  1  0
 12 23  1  0
 13 14  1  0
 13 18  1  0
 14 15  1  0
 15 16  1  0
 16 17  1  0
 18 19  1  0
 19 20  1  0
 20 21  1  0
 20 43  1  0
 21 22  1  0
 22 24  1  0
 23 33  1  0
 24 25  1  0
 24 44  1  0
 25 43  1  0
 26 27  1  0
 26 44  1  0
 26 46  1  0
 27 28  1  0
 27 32  1  0
 28 29  1  0
 29 30  1  0
 30 31  1  0
 30 39  1  0
 31 32  1  0
 33 34  1  0
 33 40  1  0
 34 35  1  0
 34 38  1  0
 36 37  1  0
 36 40  1  0
 36 42  1  0
 37 38  1  0
M  END
$$$$
