5ie1_A_6BS_407
     RDKit          3D

 29 31  0  0  0  0  0  0  0  0999 V2000
   69.7000   50.0260   11.2090 C   0  0  0  0  0  3  0  0  0  0  0  0
   67.3570   47.7720    9.4750 C   0  0  0  0  0  2  0  0  0  0  0  0
   70.6750   50.0910   12.2090 C   0  0  0  0  0  3  0  0  0  0  0  0
   70.6320   51.2940   12.9060 C   0  0  0  0  0  2  0  0  0  0  0  0
   71.4400   51.5340   14.0080 C   0  0  0  0  0  2  0  0  0  0  0  0
   72.2610   50.5380   14.4970 C   0  0  0  0  0  2  0  0  0  0  0  0
   72.2520   49.3070   13.8710 C   0  0  0  0  0  2  0  0  0  0  0  0
   71.3990   49.0480   12.8060 C   0  0  0  0  0  3  0  0  0  0  0  0
   71.5610   47.6540   12.1920 C   0  0  0  0  0  1  0  0  0  0  0  0
   65.6610   46.5560    8.0920 C   0  0  0  0  0  2  0  0  0  0  0  0
   64.1440   46.8310    8.2260 C   0  0  0  0  0  2  0  0  0  0  0  0
   69.6270   51.1320   10.3640 C   0  0  0  0  0  2  0  0  0  0  0  0
   63.6110   47.2620    9.6140 C   0  0  0  0  0  3  0  0  0  0  0  0
   62.6530   48.9960   11.0490 C   0  0  0  0  0  2  0  0  0  0  0  0
   62.8580   50.4750   11.4540 C   0  0  0  0  0  2  0  0  0  0  0  0
   64.3070   50.9420   11.6470 C   0  0  0  0  0  0  0  0  0  0  0  0
   65.1100   50.8090   10.3690 C   0  0  0  0  0  1  0  0  0  0  0  0
   64.3080   52.4030   12.0900 C   0  0  0  0  0  1  0  0  0  0  0  0
   64.9350   50.0820   12.7420 C   0  0  0  0  0  1  0  0  0  0  0  0
   68.7610   51.1530    9.2760 C   0  0  0  0  0  2  0  0  0  0  0  0
   68.0050   50.0280    8.9770 C   0  0  0  0  0  3  0  0  0  0  0  0
   68.1140   48.8980    9.7680 C   0  0  0  0  0  3  0  0  0  0  0  0
   69.0180   48.8800   10.8170 C   0  0  0  0  0  2  0  0  0  0  0  0
   66.4220   48.9660    7.6300 C   0  0  0  0  0  3  0  0  0  0  0  0
   66.4900   47.8020    8.3910 C   0  0  0  0  0  3  0  0  0  0  0  0
   63.1760   48.5200    9.7450 N   0  0  0  0  0  2  0  0  0  0  0  0
   65.6090   49.0260    6.5780 N   0  0  0  0  0  1  0  0  0  0  0  0
   67.1650   50.0360    7.9380 N   0  0  0  0  0  2  0  0  0  0  0  0
   63.5850   46.4550   10.5400 O   0  0  0  0  0  1  0  0  0  0  0  0
  1  3  1  0
  1 12  1  0
  1 23  1  0
  2 22  1  0
  2 25  1  0
  3  4  1  0
  3  8  1  0
  4  5  1  0
  5  6  1  0
  6  7  1  0
  7  8  1  0
  8  9  1  0
 10 11  1  0
 10 25  1  0
 11 13  1  0
 12 20  1  0
 13 26  1  0
 13 29  1  0
 14 15  1  0
 14 26  1  0
 15 16  1  0
 16 17  1  0
 16 18  1  0
 16 19  1  0
 20 21  1  0
 21 22  1  0
 21 28  1  0
 22 23  1  0
 24 25  1  0
 24 27  1  0
 24 28  1  0
M  END
$$$$
