5mxd_C_III_701
     RDKit          3D

 18 20  0  0  0  0  0  0  0  0999 V2000
  -61.8660  -38.0100   40.0790 C   0  0  0  0  0  1  0  0  0  0  0  0
  -62.0400  -40.7290   35.2080 C   0  0  0  0  0  2  0  0  0  0  0  0
  -61.6280  -39.4710   35.6440 C   0  0  0  0  0  2  0  0  0  0  0  0
  -61.3410  -39.2520   36.9640 C   0  0  0  0  0  2  0  0  0  0  0  0
  -61.4570  -40.3000   37.9020 C   0  0  0  0  0  3  0  0  0  0  0  0
  -61.5090  -44.8260   39.8940 C   0  0  0  0  0  2  0  0  0  0  0  0
  -61.3650  -45.7850   41.1090 C   0  0  0  0  0  2  0  0  0  0  0  0
  -61.1980  -44.8470   42.3410 C   0  0  0  0  0  2  0  0  0  0  0  0
  -61.1000  -43.4340   41.7340 C   0  0  0  0  0  2  0  0  0  0  0  0
  -59.7940  -39.0230   40.9300 C   0  0  0  0  0  1  0  0  0  0  0  0
  -61.1740  -40.1520   39.2980 C   0  0  0  0  0  3  0  0  0  0  0  0
  -61.7160  -42.4240   39.6110 C   0  0  0  0  0  3  0  0  0  0  0  0
  -61.8820  -41.5850   37.4450 C   0  0  0  0  0  3  0  0  0  0  0  0
  -62.1690  -41.7710   36.0850 C   0  0  0  0  0  2  0  0  0  0  0  0
  -61.8600  -43.5130   40.4750 N   0  0  0  0  0  0  0  0  0  0  0  0
  -60.7560  -38.9340   39.8130 N   0  0  0  0  0  0  0  0  0  0  0  0
  -61.3230  -41.2250   40.0830 N   0  0  0  0  0  2  0  0  0  0  0  0
  -62.0000  -42.5970   38.3250 N   0  0  0  0  0  2  0  0  0  0  0  0
  1 16  1  0
  2  3  1  0
  2 14  1  0
  3  4  1  0
  4  5  1  0
  5 11  1  0
  5 13  1  0
  6  7  1  0
  6 15  1  0
  7  8  1  0
  8  9  1  0
  9 15  1  0
 10 16  1  0
 11 16  1  0
 11 17  1  0
 12 15  1  0
 12 17  1  0
 12 18  1  0
 13 14  1  0
 13 18  1  0
M  END
$$$$
