5mxd_B_III_701
     RDKit          3D

 18 20  0  0  0  0  0  0  0  0999 V2000
  -12.5830  -94.0920    4.6270 C   0  0  0  0  0  1  0  0  0  0  0  0
  -13.5930  -91.6570    9.7060 C   0  0  0  0  0  2  0  0  0  0  0  0
  -14.3820  -92.0170    8.6120 C   0  0  0  0  0  2  0  0  0  0  0  0
  -13.9380  -92.9330    7.6950 C   0  0  0  0  0  2  0  0  0  0  0  0
  -12.6680  -93.5300    7.8480 C   0  0  0  0  0  3  0  0  0  0  0  0
   -8.0920  -94.7210    9.5330 C   0  0  0  0  0  2  0  0  0  0  0  0
   -6.9810  -95.7940    9.6310 C   0  0  0  0  0  2  0  0  0  0  0  0
   -7.7650  -97.1110    9.3740 C   0  0  0  0  0  2  0  0  0  0  0  0
   -8.9930  -96.6760    8.5420 C   0  0  0  0  0  2  0  0  0  0  0  0
  -12.7580  -96.3670    5.5510 C   0  0  0  0  0  1  0  0  0  0  0  0
  -12.1280  -94.4970    6.9390 C   0  0  0  0  0  3  0  0  0  0  0  0
  -10.1890  -94.6150    8.2560 C   0  0  0  0  0  3  0  0  0  0  0  0
  -11.8650  -93.1570    8.9720 C   0  0  0  0  0  3  0  0  0  0  0  0
  -12.3560  -92.2110    9.8930 C   0  0  0  0  0  2  0  0  0  0  0  0
   -8.9320  -95.2060    8.4130 N   0  0  0  0  0  0  0  0  0  0  0  0
  -12.8350  -94.9170    5.8220 N   0  0  0  0  0  0  0  0  0  0  0  0
  -10.9110  -94.9850    7.1920 N   0  0  0  0  0  2  0  0  0  0  0  0
  -10.6510  -93.7210    9.1260 N   0  0  0  0  0  2  0  0  0  0  0  0
  1 16  1  0
  2  3  1  0
  2 14  1  0
  3  4  1  0
  4  5  1  0
  5 11  1  0
  5 13  1  0
  6  7  1  0
  6 15  1  0
  7  8  1  0
  8  9  1  0
  9 15  1  0
 10 16  1  0
 11 16  1  0
 11 17  1  0
 12 15  1  0
 12 17  1  0
 12 18  1  0
 13 14  1  0
 13 18  1  0
M  END
$$$$
