5qco_B_E4A_401
     RDKit          3D

 42 46  0  0  0  0  0  0  0  0999 V2000
   15.2970    4.6740  -14.0430 C   0  0  0  0  0  3  0  0  0  0  0  0
   14.0370    4.1230  -14.1870 C   0  0  0  0  0  2  0  0  0  0  0  0
   13.1170    4.7660  -14.9930 C   0  0  0  0  0  2  0  0  0  0  0  0
   13.4550    5.9350  -15.6520 C   0  0  0  0  0  2  0  0  0  0  0  0
   16.9100    2.9490  -13.8490 C   0  0  0  0  0  2  0  0  0  0  0  0
   18.2360    2.8420  -13.1680 C   0  0  0  0  0  2  0  0  0  0  0  0
   19.3200    2.4020  -14.1340 C   0  0  0  0  0  2  0  0  0  0  0  0
   18.8100    1.8090  -15.3980 C   0  0  0  0  0  2  0  0  0  0  0  0
   15.5330    7.5720  -17.6730 C   0  0  0  0  0  3  0  0  0  0  0  0
   18.4950    2.7690  -17.6450 C   0  0  0  0  0  3  0  0  0  0  0  0
   17.6520    3.8780  -17.6210 C   0  0  0  0  0  2  0  0  0  0  0  0
   16.8350    4.1670  -18.7100 C   0  0  0  0  0  3  0  0  0  0  0  0
   16.8680    3.3490  -19.8350 C   0  0  0  0  0  2  0  0  0  0  0  0
   17.7030    2.2380  -19.8670 C   0  0  0  0  0  3  0  0  0  0  0  0
   18.5180    1.9480  -18.7700 C   0  0  0  0  0  2  0  0  0  0  0  0
   17.7010    1.3740  -21.0830 C   0  0  0  0  0  3  0  0  0  0  0  0
   18.9980    0.8680  -21.6310 C   0  0  0  0  0  1  0  0  0  0  0  0
   15.9630    5.3760  -18.6890 C   0  0  0  0  0  3  0  0  0  0  0  0
   15.0830    7.7690  -16.2240 C   0  0  0  0  0  2  0  0  0  0  0  0
   16.3810    8.7640  -18.1210 C   0  0  0  0  0  3  0  0  0  0  0  0
   16.7810    8.6020  -19.5750 C   0  0  0  0  0  2  0  0  0  0  0  0
   16.8970    9.9960  -21.5840 C   0  0  0  0  0  0  0  0  0  0  0  0
   17.6590   11.1350  -22.2590 C   0  0  0  0  0  2  0  0  0  0  0  0
   18.2980    9.7760  -22.2220 C   0  0  0  0  0  2  0  0  0  0  0  0
   15.4870   10.0940  -22.1480 C   0  0  0  0  0  3  0  0  0  0  0  0
   14.6990   11.1580  -21.7180 C   0  0  0  0  0  2  0  0  0  0  0  0
   13.3920   11.3040  -22.1820 C   0  0  0  0  0  3  0  0  0  0  0  0
   12.8930   10.3620  -23.0740 C   0  0  0  0  0  2  0  0  0  0  0  0
   13.6730    9.2960  -23.4930 C   0  0  0  0  0  2  0  0  0  0  0  0
   14.9690    9.1620  -23.0330 C   0  0  0  0  0  2  0  0  0  0  0  0
   12.4890   12.4590  -21.7290 C   0  0  0  0  0  3  0  0  0  0  0  0
   11.7760   12.1200  -20.4540 C   0  0  0  0  0  1  0  0  0  0  0  0
   14.7200    6.4840  -15.5230 C   0  0  0  0  0  3  0  0  0  0  0  0
   13.2170   13.7960  -21.5790 C   0  0  0  0  0  1  0  0  0  0  0  0
   15.6460    5.8420  -14.7080 C   0  0  0  0  0  2  0  0  0  0  0  0
   16.2820    6.3220  -17.7980 N   0  0  0  0  0  2  0  0  0  0  0  0
   19.2970    2.5020  -16.5540 N   0  0  0  0  0  2  0  0  0  0  0  0
   16.9180    9.9500  -20.1310 N   0  0  0  0  0  2  0  0  0  0  0  0
   16.1960    4.0250  -13.2510 O   0  0  0  0  0  0  0  0  0  0  0  0
   16.6510    1.1060  -21.6380 O   0  0  0  0  0  1  0  0  0  0  0  0
   15.0330    5.5040  -19.4830 O   0  0  0  0  0  1  0  0  0  0  0  0
   15.6280    9.9680  -18.0140 O   0  0  0  0  0  1  0  0  0  0  0  0
  1  2  1  0
  1 35  1  0
  1 39  1  0
  2  3  1  0
  3  4  1  0
  4 33  1  0
  5  6  1  0
  5 39  1  0
  6  7  1  0
  7  8  1  0
  8 37  1  0
  9 19  1  0
  9 20  1  0
  9 36  1  0
 10 11  1  0
 10 15  1  0
 10 37  1  0
 11 12  1  0
 12 13  1  0
 12 18  1  0
 13 14  1  0
 14 15  1  0
 14 16  1  0
 16 17  1  0
 16 40  1  0
 18 36  1  0
 18 41  1  0
 19 33  1  0
 20 21  1  0
 20 42  1  0
 21 38  1  0
 22 23  1  0
 22 24  1  0
 22 25  1  0
 22 38  1  0
 23 24  1  0
 25 26  1  0
 25 30  1  0
 26 27  1  0
 27 28  1  0
 27 31  1  0
 28 29  1  0
 29 30  1  0
 31 32  1  0
 31 34  1  0
 33 35  1  0
M  END
$$$$
