5qcp_C_E4G_401
     RDKit          3D

 42 45  0  0  0  0  0  0  0  0999 V2000
    5.1730  -42.2400   48.3800 C   0  0  0  0  0  3  0  0  0  0  0  0
    4.9530  -42.5070   49.7170 C   0  0  0  0  0  2  0  0  0  0  0  0
    5.9120  -43.2050   50.4250 C   0  0  0  0  0  2  0  0  0  0  0  0
    7.0720  -43.6340   49.8050 C   0  0  0  0  0  2  0  0  0  0  0  0
    4.3220  -40.9720   46.5310 C   0  0  0  0  0  2  0  0  0  0  0  0
    4.0290  -39.4990   46.6760 C   0  0  0  0  0  2  0  0  0  0  0  0
    5.2360  -38.7360   47.1800 C   0  0  0  0  0  2  0  0  0  0  0  0
    5.2230  -38.5940   48.6610 C   0  0  0  0  0  2  0  0  0  0  0  0
    9.8030  -43.0270   48.2900 C   0  0  0  0  0  3  0  0  0  0  0  0
    7.4400  -37.9220   49.3200 C   0  0  0  0  0  3  0  0  0  0  0  0
    7.9410  -39.2180   49.2500 C   0  0  0  0  0  2  0  0  0  0  0  0
    9.2830  -39.4590   49.5580 C   0  0  0  0  0  3  0  0  0  0  0  0
   10.1080  -38.3980   49.9390 C   0  0  0  0  0  2  0  0  0  0  0  0
    9.5830  -37.1050   49.9970 C   0  0  0  0  0  3  0  0  0  0  0  0
    8.2460  -36.8600   49.6980 C   0  0  0  0  0  2  0  0  0  0  0  0
    9.7360  -34.6820   50.5820 C   0  0  0  0  0  2  0  0  0  0  0  0
    9.1320  -33.9930   49.3840 C   0  0  0  0  0  3  0  0  0  0  0  0
    8.1480  -32.8960   49.6460 C   0  0  0  0  0  1  0  0  0  0  0  0
    8.5760  -43.8380   47.7960 C   0  0  0  0  0  2  0  0  0  0  0  0
    9.8030  -40.8720   49.5030 C   0  0  0  0  0  3  0  0  0  0  0  0
   11.0410  -43.1880   47.3690 C   0  0  0  0  0  3  0  0  0  0  0  0
   12.2810  -42.5050   47.9290 C   0  0  0  0  0  2  0  0  0  0  0  0
   14.7100  -42.6570   47.8740 C   0  0  0  0  0  2  0  0  0  0  0  0
   14.9450  -43.4730   49.1210 C   0  0  0  0  0  3  0  0  0  0  0  0
   15.0100  -44.8650   49.0610 C   0  0  0  0  0  2  0  0  0  0  0  0
   15.2400  -45.6370   50.1970 C   0  0  0  0  0  3  0  0  0  0  0  0
   15.4040  -44.9920   51.4160 C   0  0  0  0  0  2  0  0  0  0  0  0
   15.3400  -43.6070   51.4950 C   0  0  0  0  0  2  0  0  0  0  0  0
   15.1120  -42.8530   50.3560 C   0  0  0  0  0  2  0  0  0  0  0  0
   15.3100  -47.1560   50.1110 C   0  0  0  0  0  3  0  0  0  0  0  0
   13.9270  -47.7750   50.2260 C   0  0  0  0  0  1  0  0  0  0  0  0
    7.2930  -43.3870   48.4600 C   0  0  0  0  0  3  0  0  0  0  0  0
   15.9740  -47.6200   48.8230 C   0  0  0  0  0  1  0  0  0  0  0  0
    6.3330  -42.6710   47.7460 C   0  0  0  0  0  2  0  0  0  0  0  0
    9.4180  -41.6250   48.4530 N   0  0  0  0  0  2  0  0  0  0  0  0
   13.4560  -42.9800   47.1900 N   0  0  0  0  0  2  0  0  0  0  0  0
    4.1350  -41.5510   47.8140 O   0  0  0  0  0  0  0  0  0  0  0  0
    6.1470  -37.5640   49.0240 O   0  0  0  0  0  0  0  0  0  0  0  0
   10.3860  -36.0260   50.3430 O   0  0  0  0  0  0  0  0  0  0  0  0
    9.4130  -34.3350   48.2590 O   0  0  0  0  0  1  0  0  0  0  0  0
   10.5420  -41.3080   50.3810 O   0  0  0  0  0  1  0  0  0  0  0  0
   11.3840  -44.5630   47.1870 O   0  0  0  0  0  1  0  0  0  0  0  0
  1  2  1  0
  1 34  1  0
  1 37  1  0
  2  3  1  0
  3  4  1  0
  4 32  1  0
  5  6  1  0
  5 37  1  0
  6  7  1  0
  7  8  1  0
  8 38  1  0
  9 19  1  0
  9 21  1  0
  9 35  1  0
 10 11  1  0
 10 15  1  0
 10 38  1  0
 11 12  1  0
 12 13  1  0
 12 20  1  0
 13 14  1  0
 14 15  1  0
 14 39  1  0
 16 17  1  0
 16 39  1  0
 17 18  1  0
 17 40  1  0
 19 32  1  0
 20 35  1  0
 20 41  1  0
 21 22  1  0
 21 42  1  0
 22 36  1  0
 23 24  1  0
 23 36  1  0
 24 25  1  0
 24 29  1  0
 25 26  1  0
 26 27  1  0
 26 30  1  0
 27 28  1  0
 28 29  1  0
 30 31  1  0
 30 33  1  0
 32 34  1  0
M  END
$$$$
