5qcp_B_E4G_401
     RDKit          3D

 42 45  0  0  0  0  0  0  0  0999 V2000
   15.4540    4.5620  -15.3970 C   0  0  0  0  0  3  0  0  0  0  0  0
   14.3220    3.9470  -15.9040 C   0  0  0  0  0  2  0  0  0  0  0  0
   13.5730    4.6040  -16.8610 C   0  0  0  0  0  2  0  0  0  0  0  0
   13.9480    5.8560  -17.3070 C   0  0  0  0  0  2  0  0  0  0  0  0
   17.4030    4.2180  -14.0450 C   0  0  0  0  0  2  0  0  0  0  0  0
   18.3120    3.0260  -14.1840 C   0  0  0  0  0  2  0  0  0  0  0  0
   18.8690    2.8950  -15.5610 C   0  0  0  0  0  2  0  0  0  0  0  0
   17.9000    2.2210  -16.4630 C   0  0  0  0  0  2  0  0  0  0  0  0
   15.9360    7.7790  -18.7550 C   0  0  0  0  0  3  0  0  0  0  0  0
   18.3410    2.6670  -18.7500 C   0  0  0  0  0  3  0  0  0  0  0  0
   17.5910    3.8380  -18.7830 C   0  0  0  0  0  2  0  0  0  0  0  0
   17.4360    4.5190  -19.9920 C   0  0  0  0  0  3  0  0  0  0  0  0
   18.0260    4.0150  -21.1510 C   0  0  0  0  0  2  0  0  0  0  0  0
   18.7840    2.8390  -21.0840 C   0  0  0  0  0  3  0  0  0  0  0  0
   18.9420    2.1650  -19.8880 C   0  0  0  0  0  2  0  0  0  0  0  0
   20.0070    0.9150  -22.1780 C   0  0  0  0  0  2  0  0  0  0  0  0
   21.2530    0.7250  -21.3530 C   0  0  0  0  0  3  0  0  0  0  0  0
   21.6000   -0.6680  -20.9250 C   0  0  0  0  0  1  0  0  0  0  0  0
   15.4820    7.8540  -17.3050 C   0  0  0  0  0  2  0  0  0  0  0  0
   16.5940    5.7600  -19.9920 C   0  0  0  0  0  3  0  0  0  0  0  0
   16.6710    9.0470  -19.2050 C   0  0  0  0  0  3  0  0  0  0  0  0
   16.8610    9.0670  -20.7180 C   0  0  0  0  0  2  0  0  0  0  0  0
   17.5680   10.5220  -22.5590 C   0  0  0  0  0  2  0  0  0  0  0  0
   16.1770   10.5590  -23.1690 C   0  0  0  0  0  3  0  0  0  0  0  0
   15.2350   11.5060  -22.7550 C   0  0  0  0  0  2  0  0  0  0  0  0
   13.9560   11.5540  -23.3080 C   0  0  0  0  0  3  0  0  0  0  0  0
   13.6220   10.6330  -24.2960 C   0  0  0  0  0  2  0  0  0  0  0  0
   14.5400    9.6810  -24.7120 C   0  0  0  0  0  2  0  0  0  0  0  0
   15.8110    9.6470  -24.1550 C   0  0  0  0  0  2  0  0  0  0  0  0
   12.9420   12.6100  -22.8830 C   0  0  0  0  0  3  0  0  0  0  0  0
   12.0860   12.1780  -21.7040 C   0  0  0  0  0  1  0  0  0  0  0  0
   15.0730    6.4880  -16.7980 C   0  0  0  0  0  3  0  0  0  0  0  0
   13.5790   13.9610  -22.6110 C   0  0  0  0  0  1  0  0  0  0  0  0
   15.8380    5.8220  -15.8410 C   0  0  0  0  0  2  0  0  0  0  0  0
   16.7340    6.5760  -18.9370 N   0  0  0  0  0  2  0  0  0  0  0  0
   17.5480   10.3090  -21.1060 N   0  0  0  0  0  2  0  0  0  0  0  0
   16.1070    3.8080  -14.4490 O   0  0  0  0  0  0  0  0  0  0  0  0
   18.5730    1.8950  -17.6480 O   0  0  0  0  0  0  0  0  0  0  0  0
   19.4260    2.3150  -22.2130 O   0  0  0  0  0  0  0  0  0  0  0  0
   21.9240    1.6740  -21.0210 O   0  0  0  0  0  1  0  0  0  0  0  0
   15.8040    5.9940  -20.9040 O   0  0  0  0  0  1  0  0  0  0  0  0
   15.9050   10.2060  -18.8400 O   0  0  0  0  0  1  0  0  0  0  0  0
  1  2  1  0
  1 34  1  0
  1 37  1  0
  2  3  1  0
  3  4  1  0
  4 32  1  0
  5  6  1  0
  5 37  1  0
  6  7  1  0
  7  8  1  0
  8 38  1  0
  9 19  1  0
  9 21  1  0
  9 35  1  0
 10 11  1  0
 10 15  1  0
 10 38  1  0
 11 12  1  0
 12 13  1  0
 12 20  1  0
 13 14  1  0
 14 15  1  0
 14 39  1  0
 16 17  1  0
 16 39  1  0
 17 18  1  0
 17 40  1  0
 19 32  1  0
 20 35  1  0
 20 41  1  0
 21 22  1  0
 21 42  1  0
 22 36  1  0
 23 24  1  0
 23 36  1  0
 24 25  1  0
 24 29  1  0
 25 26  1  0
 26 27  1  0
 26 30  1  0
 27 28  1  0
 28 29  1  0
 30 31  1  0
 30 33  1  0
 32 34  1  0
M  END
$$$$
