5qcr_B_E4J_401
     RDKit          3D

 36 37  0  0  0  0  0  0  0  0999 V2000
   17.0350    9.7470  -21.4980 C   0  0  0  0  0  3  0  0  0  0  0  0
   18.0810    9.6460  -22.6360 C   0  0  0  0  0  1  0  0  0  0  0  0
   15.6660   10.0460  -22.1020 C   0  0  0  0  0  3  0  0  0  0  0  0
   13.8600   11.6660  -22.4380 C   0  0  0  0  0  2  0  0  0  0  0  0
   13.5210   13.0910  -22.1630 C   0  0  0  0  0  2  0  0  0  0  0  0
   12.3870   13.5750  -23.1230 C   0  0  0  0  0  2  0  0  0  0  0  0
   15.9490    7.4400  -18.5990 C   0  0  0  0  0  3  0  0  0  0  0  0
   11.0060   13.1210  -22.6780 C   0  0  0  0  0  1  0  0  0  0  0  0
   15.5330    7.6400  -17.1390 C   0  0  0  0  0  2  0  0  0  0  0  0
   15.0310    6.3520  -16.5000 C   0  0  0  0  0  3  0  0  0  0  0  0
   15.4480    5.9740  -15.2300 C   0  0  0  0  0  2  0  0  0  0  0  0
   14.9880    4.8010  -14.6480 C   0  0  0  0  0  2  0  0  0  0  0  0
   14.1150    3.9840  -15.3310 C   0  0  0  0  0  2  0  0  0  0  0  0
   13.7020    4.3370  -16.6030 C   0  0  0  0  0  2  0  0  0  0  0  0
   14.1550    5.5120  -17.1850 C   0  0  0  0  0  2  0  0  0  0  0  0
   16.6650    5.3360  -19.6520 C   0  0  0  0  0  3  0  0  0  0  0  0
   16.5810    8.7040  -19.2330 C   0  0  0  0  0  3  0  0  0  0  0  0
   17.5000    4.1100  -19.5220 C   0  0  0  0  0  3  0  0  0  0  0  0
   17.6990    3.6260  -18.2350 C   0  0  0  0  0  2  0  0  0  0  0  0
   18.4180    2.4440  -18.0800 C   0  0  0  0  0  3  0  0  0  0  0  0
   18.6850    2.2220  -20.3400 C   0  0  0  0  0  3  0  0  0  0  0  0
   17.9740    3.3900  -20.6200 C   0  0  0  0  0  2  0  0  0  0  0  0
   18.6530    1.6280  -22.6420 C   0  0  0  0  0  1  0  0  0  0  0  0
   17.8770    2.2000  -15.6050 C   0  0  0  0  0  2  0  0  0  0  0  0
   18.7160    2.8050  -14.4870 C   0  0  0  0  0  2  0  0  0  0  0  0
   19.7730    3.7370  -15.0290 C   0  0  0  0  0  2  0  0  0  0  0  0
   20.6560    4.4330  -13.9610 C   0  0  0  0  0  1  0  0  0  0  0  0
   17.0070    8.4690  -20.6770 C   0  0  0  0  0  2  0  0  0  0  0  0
   16.8020    6.2570  -18.6870 N   0  0  0  0  0  2  0  0  0  0  0  0
   15.1700   11.2670  -21.9050 N   0  0  0  0  0  2  0  0  0  0  0  0
   18.9110    1.7550  -19.1150 N   0  0  0  0  0  2  0  0  0  0  0  0
   18.6760    1.9140  -16.7940 N   0  0  0  0  0  2  0  0  0  0  0  0
   15.0600    9.1820  -22.7270 O   0  0  0  0  0  1  0  0  0  0  0  0
   15.8550    5.4550  -20.5690 O   0  0  0  0  0  1  0  0  0  0  0  0
   19.2180    1.4910  -21.3420 O   0  0  0  0  0  0  0  0  0  0  0  0
   17.7050    9.2030  -18.4860 O   0  0  0  0  0  1  0  0  0  0  0  0
  1  2  1  0
  1  3  1  0
  1 28  1  0
  3 30  1  0
  3 33  1  0
  4  5  1  0
  4 30  1  0
  5  6  1  0
  6  8  1  0
  7  9  1  0
  7 17  1  0
  7 29  1  0
  9 10  1  0
 10 11  1  0
 10 15  1  0
 11 12  1  0
 12 13  1  0
 13 14  1  0
 14 15  1  0
 16 18  1  0
 16 29  1  0
 16 34  1  0
 17 28  1  0
 17 36  1  0
 18 19  1  0
 18 22  1  0
 19 20  1  0
 20 31  1  0
 20 32  1  0
 21 22  1  0
 21 31  1  0
 21 35  1  0
 23 35  1  0
 24 25  1  0
 24 32  1  0
 25 26  1  0
 26 27  1  0
M  END
$$$$
