5qcs_C_AXF_401
     RDKit          3D

 34 35  0  0  0  0  0  0  0  0999 V2000
    3.1020  -38.6800   48.7460 C   0  0  0  0  0  2  0  0  0  0  0  0
    4.0480  -39.8570   49.0430 C   0  0  0  0  0  2  0  0  0  0  0  0
    7.3340  -37.8900   49.2620 C   0  0  0  0  0  3  0  0  0  0  0  0
    5.3390  -39.3940   49.7100 C   0  0  0  0  0  3  0  0  0  0  0  0
    9.4200  -38.7180   50.1880 C   0  0  0  0  0  3  0  0  0  0  0  0
    9.9460  -40.1320   50.3990 C   0  0  0  0  0  3  0  0  0  0  0  0
   10.1730  -42.4000   49.4350 C   0  0  0  0  0  3  0  0  0  0  0  0
    9.0900  -43.3360   48.8530 C   0  0  0  0  0  2  0  0  0  0  0  0
    7.2080  -43.3780   50.9610 C   0  0  0  0  0  2  0  0  0  0  0  0
    6.1670  -42.5750   51.6530 C   0  0  0  0  0  2  0  0  0  0  0  0
    6.2600  -41.2760   51.8360 C   0  0  0  0  0  2  0  0  0  0  0  0
    5.2520  -40.4150   52.4320 C   0  0  0  0  0  2  0  0  0  0  0  0
    5.9370  -38.2770   48.8380 C   0  0  0  0  0  3  0  0  0  0  0  0
   11.4620  -42.6590   48.6700 C   0  0  0  0  0  3  0  0  0  0  0  0
   12.6310  -41.8140   49.1790 C   0  0  0  0  0  2  0  0  0  0  0  0
   13.9870  -42.5530   49.0510 C   0  0  0  0  0  3  0  0  0  0  0  0
   15.1890  -41.5570   49.0140 C   0  0  0  0  0  1  0  0  0  0  0  0
   14.1870  -43.5620   50.1730 C   0  0  0  0  0  3  0  0  0  0  0  0
   14.7870  -45.8500   50.7590 C   0  0  0  0  0  2  0  0  0  0  0  0
   15.5310  -47.0100   50.1370 C   0  0  0  0  0  2  0  0  0  0  0  0
   16.2140  -47.9110   51.1400 C   0  0  0  0  0  2  0  0  0  0  0  0
   15.2400  -48.6900   51.9890 C   0  0  0  0  0  1  0  0  0  0  0  0
    9.5310  -37.8920   51.4620 C   0  0  0  0  0  1  0  0  0  0  0  0
    3.8170  -37.5880   47.9820 C   0  0  0  0  0  2  0  0  0  0  0  0
    8.0460  -38.8710   49.7990 N   0  0  0  0  0  2  0  0  0  0  0  0
    9.7670  -40.9900   49.3750 N   0  0  0  0  0  2  0  0  0  0  0  0
   14.5510  -44.7880   49.8080 N   0  0  0  0  0  2  0  0  0  0  0  0
    5.0240  -37.1580   48.6470 N   0  0  0  0  0  2  0  0  0  0  0  0
   11.2660  -42.4440   47.2720 O   0  0  0  0  0  1  0  0  0  0  0  0
   14.0000  -43.2480   51.3490 O   0  0  0  0  0  1  0  0  0  0  0  0
   10.4610  -40.4550   51.4620 O   0  0  0  0  0  1  0  0  0  0  0  0
    7.7700  -36.7560   49.0630 O   0  0  0  0  0  1  0  0  0  0  0  0
    4.9860  -38.9110   51.4520 S   0  0  0  0  0  0  0  0  0  0  0  0
    7.4350  -42.7570   49.2620 S   0  0  0  0  0  0  0  0  0  0  0  0
  1  2  1  0
  1 24  1  0
  2  4  1  0
  3 13  1  0
  3 25  1  0
  3 32  1  0
  4 13  1  0
  4 33  1  0
  5  6  1  0
  5 23  1  0
  5 25  1  0
  6 26  1  0
  6 31  1  0
  7  8  1  0
  7 14  1  0
  7 26  1  0
  8 34  1  0
  9 10  1  0
  9 34  1  0
 10 11  1  0
 11 12  1  0
 12 33  1  0
 13 28  1  0
 14 15  1  0
 14 29  1  0
 15 16  1  0
 16 17  1  0
 16 18  1  0
 18 27  1  0
 18 30  1  0
 19 20  1  0
 19 27  1  0
 20 21  1  0
 21 22  1  0
 24 28  1  0
M  END
$$$$
