5qct_B_E4Y_401
     RDKit          3D

 38 39  0  0  0  0  0  0  0  0999 V2000
   15.2630    6.7760  -16.6910 C   0  0  0  0  0  2  0  0  0  0  0  0
   14.5720    5.5160  -16.0940 C   0  0  0  0  0  2  0  0  0  0  0  0
   15.0970    4.1790  -16.6330 C   0  0  0  0  0  2  0  0  0  0  0  0
   16.6560    4.0020  -16.6060 C   0  0  0  0  0  2  0  0  0  0  0  0
   17.1100    2.8950  -17.5750 C   0  0  0  0  0  2  0  0  0  0  0  0
   19.3620    2.7700  -18.8190 C   0  0  0  0  0  3  0  0  0  0  0  0
   18.7480    3.1730  -20.1290 C   0  0  0  0  0  3  0  0  0  0  0  0
   18.0860    4.4000  -20.2150 C   0  0  0  0  0  2  0  0  0  0  0  0
   16.1880    8.2060  -20.1980 C   0  0  0  0  0  3  0  0  0  0  0  0
   17.5760    4.8440  -21.4310 C   0  0  0  0  0  3  0  0  0  0  0  0
   17.7000    4.0470  -22.5630 C   0  0  0  0  0  2  0  0  0  0  0  0
   18.3900    2.8450  -22.4810 C   0  0  0  0  0  3  0  0  0  0  0  0
   18.9330    2.4090  -21.2810 C   0  0  0  0  0  2  0  0  0  0  0  0
   18.5170    0.7240  -23.6140 C   0  0  0  0  0  2  0  0  0  0  0  0
   18.6350    0.2320  -25.0050 C   0  0  0  0  0  1  0  0  0  0  0  0
   16.7850    6.1160  -21.4490 C   0  0  0  0  0  3  0  0  0  0  0  0
   19.2760    2.3640  -16.4660 C   0  0  0  0  0  2  0  0  0  0  0  0
   15.8060    8.2410  -18.7250 C   0  0  0  0  0  2  0  0  0  0  0  0
   19.9830    3.5460  -15.8420 C   0  0  0  0  0  1  0  0  0  0  0  0
   13.8090    6.7060  -18.7530 C   0  0  0  0  0  1  0  0  0  0  0  0
   16.8340    9.5130  -20.7160 C   0  0  0  0  0  3  0  0  0  0  0  0
   17.2190    9.4350  -22.1810 C   0  0  0  0  0  2  0  0  0  0  0  0
   17.0560   10.7940  -22.9030 C   0  0  0  0  0  3  0  0  0  0  0  0
   17.9200   10.8730  -24.1420 C   0  0  0  0  0  1  0  0  0  0  0  0
   15.6110   11.0600  -23.3000 C   0  0  0  0  0  3  0  0  0  0  0  0
   13.7700   12.6740  -23.3530 C   0  0  0  0  0  2  0  0  0  0  0  0
   13.5650   14.1690  -23.1920 C   0  0  0  0  0  2  0  0  0  0  0  0
   15.2230    6.9010  -18.2220 C   0  0  0  0  0  3  0  0  0  0  0  0
   12.3460   14.6840  -23.9560 C   0  0  0  0  0  2  0  0  0  0  0  0
   11.0930   13.9530  -23.5890 C   0  0  0  0  0  1  0  0  0  0  0  0
   17.0170    6.9790  -20.4420 N   0  0  0  0  0  2  0  0  0  0  0  0
   18.5910    2.7160  -17.7010 N   0  0  0  0  0  0  0  0  0  0  0  0
   15.1280   12.2700  -23.0120 N   0  0  0  0  0  2  0  0  0  0  0  0
   18.4870    2.1600  -23.6660 O   0  0  0  0  0  0  0  0  0  0  0  0
   15.9310    6.3170  -22.3100 O   0  0  0  0  0  1  0  0  0  0  0  0
   20.5610    2.5710  -18.7730 O   0  0  0  0  0  1  0  0  0  0  0  0
   17.9530    9.9380  -19.9160 O   0  0  0  0  0  1  0  0  0  0  0  0
   14.9450   10.2020  -23.8740 O   0  0  0  0  0  1  0  0  0  0  0  0
  1  2  1  0
  1 28  1  0
  2  3  1  0
  3  4  1  0
  4  5  1  0
  5 32  1  0
  6  7  1  0
  6 32  1  0
  6 36  1  0
  7  8  1  0
  7 13  1  0
  8 10  1  0
  9 18  1  0
  9 21  1  0
  9 31  1  0
 10 11  1  0
 10 16  1  0
 11 12  1  0
 12 13  1  0
 12 34  1  0
 14 15  1  0
 14 34  1  0
 16 31  1  0
 16 35  1  0
 17 19  1  0
 17 32  1  0
 18 28  1  0
 20 28  1  0
 21 22  1  0
 21 37  1  0
 22 23  1  0
 23 24  1  0
 23 25  1  0
 25 33  1  0
 25 38  1  0
 26 27  1  0
 26 33  1  0
 27 29  1  0
 29 30  1  0
M  END
$$$$
