5qct_A_E4Y_401
     RDKit          3D

 38 39  0  0  0  0  0  0  0  0999 V2000
   32.7150    8.5370   16.4260 C   0  0  0  0  0  2  0  0  0  0  0  0
   32.2560    9.9550   16.8330 C   0  0  0  0  0  2  0  0  0  0  0  0
   30.7980   10.0320   17.3160 C   0  0  0  0  0  2  0  0  0  0  0  0
   30.4540    9.0370   18.4560 C   0  0  0  0  0  2  0  0  0  0  0  0
   28.9630    9.0090   18.7120 C   0  0  0  0  0  2  0  0  0  0  0  0
   27.7060    6.9750   19.5770 C   0  0  0  0  0  3  0  0  0  0  0  0
   27.2370    6.6220   18.1970 C   0  0  0  0  0  3  0  0  0  0  0  0
   28.1980    6.3630   17.2160 C   0  0  0  0  0  2  0  0  0  0  0  0
   31.2890    5.5890   14.3480 C   0  0  0  0  0  3  0  0  0  0  0  0
   27.8130    5.9510   15.9430 C   0  0  0  0  0  3  0  0  0  0  0  0
   26.4630    5.8330   15.6370 C   0  0  0  0  0  2  0  0  0  0  0  0
   25.5180    6.0500   16.6260 C   0  0  0  0  0  3  0  0  0  0  0  0
   25.8920    6.4280   17.9090 C   0  0  0  0  0  2  0  0  0  0  0  0
   23.2000    6.5850   16.9920 C   0  0  0  0  0  2  0  0  0  0  0  0
   21.8790    6.1960   16.4250 C   0  0  0  0  0  1  0  0  0  0  0  0
   28.8530    5.8080   14.8850 C   0  0  0  0  0  3  0  0  0  0  0  0
   29.0380    8.2960   21.1140 C   0  0  0  0  0  2  0  0  0  0  0  0
   32.3750    6.4560   14.9690 C   0  0  0  0  0  2  0  0  0  0  0  0
   30.1410    7.3020   21.4650 C   0  0  0  0  0  1  0  0  0  0  0  0
   31.6090    8.7210   14.1530 C   0  0  0  0  0  1  0  0  0  0  0  0
   31.7920    4.1920   13.9380 C   0  0  0  0  0  3  0  0  0  0  0  0
   30.7050    3.3020   13.3490 C   0  0  0  0  0  2  0  0  0  0  0  0
   31.2470    2.3710   12.2530 C   0  0  0  0  0  3  0  0  0  0  0  0
   30.3180    1.2240   12.0080 C   0  0  0  0  0  1  0  0  0  0  0  0
   31.4460    3.1170   10.9380 C   0  0  0  0  0  3  0  0  0  0  0  0
   32.9540    3.6870    9.0600 C   0  0  0  0  0  2  0  0  0  0  0  0
   33.9530    2.8920    8.1980 C   0  0  0  0  0  2  0  0  0  0  0  0
   31.8290    7.8340   15.3840 C   0  0  0  0  0  3  0  0  0  0  0  0
   34.5670    3.6970    6.9990 C   0  0  0  0  0  2  0  0  0  0  0  0
   33.5410    4.4440    6.1870 C   0  0  0  0  0  1  0  0  0  0  0  0
   30.1040    5.5730   15.2900 N   0  0  0  0  0  2  0  0  0  0  0  0
   28.5240    8.0400   19.7450 N   0  0  0  0  0  0  0  0  0  0  0  0
   32.6350    2.9980   10.3510 N   0  0  0  0  0  2  0  0  0  0  0  0
   24.2100    5.8650   16.2630 O   0  0  0  0  0  0  0  0  0  0  0  0
   28.5720    5.9750   13.7020 O   0  0  0  0  0  1  0  0  0  0  0  0
   27.4000    6.2540   20.5080 O   0  0  0  0  0  1  0  0  0  0  0  0
   32.4480    3.5230   15.0120 O   0  0  0  0  0  1  0  0  0  0  0  0
   30.5460    3.8140   10.4760 O   0  0  0  0  0  1  0  0  0  0  0  0
  1  2  1  0
  1 28  1  0
  2  3  1  0
  3  4  1  0
  4  5  1  0
  5 32  1  0
  6  7  1  0
  6 32  1  0
  6 36  1  0
  7  8  1  0
  7 13  1  0
  8 10  1  0
  9 18  1  0
  9 21  1  0
  9 31  1  0
 10 11  1  0
 10 16  1  0
 11 12  1  0
 12 13  1  0
 12 34  1  0
 14 15  1  0
 14 34  1  0
 16 31  1  0
 16 35  1  0
 17 19  1  0
 17 32  1  0
 18 28  1  0
 20 28  1  0
 21 22  1  0
 21 37  1  0
 22 23  1  0
 23 24  1  0
 23 25  1  0
 25 33  1  0
 25 38  1  0
 26 27  1  0
 26 33  1  0
 27 29  1  0
 29 30  1  0
M  END
$$$$
