5qct_C_E4Y_401
     RDKit          3D

 38 39  0  0  0  0  0  0  0  0999 V2000
    6.5090  -43.5530   48.5940 C   0  0  0  0  0  2  0  0  0  0  0  0
    5.1980  -43.4070   49.3540 C   0  0  0  0  0  2  0  0  0  0  0  0
    4.9890  -42.0070   49.9660 C   0  0  0  0  0  2  0  0  0  0  0  0
    5.0910  -40.8360   48.9250 C   0  0  0  0  0  2  0  0  0  0  0  0
    5.2050  -39.4840   49.6360 C   0  0  0  0  0  2  0  0  0  0  0  0
    6.5130  -37.4690   48.7800 C   0  0  0  0  0  3  0  0  0  0  0  0
    7.6470  -37.7420   49.7290 C   0  0  0  0  0  3  0  0  0  0  0  0
    8.3150  -38.9660   49.6400 C   0  0  0  0  0  2  0  0  0  0  0  0
   10.2650  -42.7500   49.1240 C   0  0  0  0  0  3  0  0  0  0  0  0
    9.4260  -39.2250   50.4410 C   0  0  0  0  0  3  0  0  0  0  0  0
    9.8430  -38.2760   51.3650 C   0  0  0  0  0  2  0  0  0  0  0  0
    9.2030  -37.0470   51.4200 C   0  0  0  0  0  3  0  0  0  0  0  0
    8.1140  -36.7660   50.6080 C   0  0  0  0  0  2  0  0  0  0  0  0
    8.8130  -35.0780   52.7420 C   0  0  0  0  0  2  0  0  0  0  0  0
    9.4860  -34.3370   53.8370 C   0  0  0  0  0  1  0  0  0  0  0  0
   10.0420  -40.5880   50.3940 C   0  0  0  0  0  3  0  0  0  0  0  0
    4.4200  -38.0540   47.7590 C   0  0  0  0  0  2  0  0  0  0  0  0
    9.0480  -43.5060   48.6020 C   0  0  0  0  0  2  0  0  0  0  0  0
    4.8210  -38.5500   46.3830 C   0  0  0  0  0  1  0  0  0  0  0  0
    7.8120  -43.8600   50.7790 C   0  0  0  0  0  1  0  0  0  0  0  0
   11.5490  -43.0230   48.3200 C   0  0  0  0  0  3  0  0  0  0  0  0
   12.7380  -42.2230   48.8350 C   0  0  0  0  0  2  0  0  0  0  0  0
   14.0680  -42.9770   48.7030 C   0  0  0  0  0  3  0  0  0  0  0  0
   15.2570  -42.0170   48.7860 C   0  0  0  0  0  1  0  0  0  0  0  0
   14.2330  -44.0420   49.7940 C   0  0  0  0  0  3  0  0  0  0  0  0
   14.7510  -46.3860   50.3160 C   0  0  0  0  0  2  0  0  0  0  0  0
   15.4890  -47.5080   49.6460 C   0  0  0  0  0  2  0  0  0  0  0  0
    7.7750  -43.1870   49.3890 C   0  0  0  0  0  3  0  0  0  0  0  0
   16.1410  -48.4730   50.6200 C   0  0  0  0  0  2  0  0  0  0  0  0
   15.1260  -49.3020   51.3350 C   0  0  0  0  0  1  0  0  0  0  0  0
    9.8930  -41.2810   49.2530 N   0  0  0  0  0  2  0  0  0  0  0  0
    5.4620  -38.3210   48.7370 N   0  0  0  0  0  0  0  0  0  0  0  0
   14.5460  -45.2670   49.3870 N   0  0  0  0  0  2  0  0  0  0  0  0
    9.6880  -36.1460   52.3290 O   0  0  0  0  0  0  0  0  0  0  0  0
   10.6000  -41.0600   51.3830 O   0  0  0  0  0  1  0  0  0  0  0  0
    6.5980  -36.5260   48.0170 O   0  0  0  0  0  1  0  0  0  0  0  0
   11.3560  -42.7950   46.9150 O   0  0  0  0  0  1  0  0  0  0  0  0
   14.0770  -43.7650   50.9780 O   0  0  0  0  0  1  0  0  0  0  0  0
  1  2  1  0
  1 28  1  0
  2  3  1  0
  3  4  1  0
  4  5  1  0
  5 32  1  0
  6  7  1  0
  6 32  1  0
  6 36  1  0
  7  8  1  0
  7 13  1  0
  8 10  1  0
  9 18  1  0
  9 21  1  0
  9 31  1  0
 10 11  1  0
 10 16  1  0
 11 12  1  0
 12 13  1  0
 12 34  1  0
 14 15  1  0
 14 34  1  0
 16 31  1  0
 16 35  1  0
 17 19  1  0
 17 32  1  0
 18 28  1  0
 20 28  1  0
 21 22  1  0
 21 37  1  0
 22 23  1  0
 23 24  1  0
 23 25  1  0
 25 33  1  0
 25 38  1  0
 26 27  1  0
 26 33  1  0
 27 29  1  0
 29 30  1  0
M  END
$$$$
