5qcu_B_E51_401
     RDKit          3D

 34 35  0  0  0  0  0  0  0  0999 V2000
   16.1520    6.9170  -18.6880 C   0  0  0  0  0  3  0  0  0  0  0  0
   15.7520    6.9790  -17.2240 C   0  0  0  0  0  2  0  0  0  0  0  0
   15.3580    5.6010  -16.6810 C   0  0  0  0  0  3  0  0  0  0  0  0
   15.2300    5.6000  -15.1470 C   0  0  0  0  0  2  0  0  0  0  0  0
   17.5960    2.7140  -18.9260 C   0  0  0  0  0  2  0  0  0  0  0  0
   15.3210    4.1850  -14.5040 C   0  0  0  0  0  2  0  0  0  0  0  0
   16.6990    3.5780  -14.6650 C   0  0  0  0  0  3  0  0  0  0  0  0
   16.9330    2.5740  -15.6040 C   0  0  0  0  0  2  0  0  0  0  0  0
   18.2020    2.0170  -15.7760 C   0  0  0  0  0  3  0  0  0  0  0  0
   19.2420    2.4900  -14.9930 C   0  0  0  0  0  2  0  0  0  0  0  0
   19.0260    3.4880  -14.0620 C   0  0  0  0  0  2  0  0  0  0  0  0
   17.7660    4.0300  -13.9020 C   0  0  0  0  0  2  0  0  0  0  0  0
   18.4470    0.9340  -16.8090 C   0  0  0  0  0  2  0  0  0  0  0  0
   14.0710    5.1040  -17.3540 C   0  0  0  0  0  1  0  0  0  0  0  0
   16.6560    8.2650  -19.2370 C   0  0  0  0  0  3  0  0  0  0  0  0
   17.0990    8.1680  -20.6870 C   0  0  0  0  0  2  0  0  0  0  0  0
   17.0060    9.4950  -21.4250 C   0  0  0  0  0  3  0  0  0  0  0  0
   17.9770    9.5160  -22.6480 C   0  0  0  0  0  1  0  0  0  0  0  0
   18.0810    3.8130  -19.8480 C   0  0  0  0  0  3  0  0  0  0  0  0
   15.5980    9.7490  -21.9410 C   0  0  0  0  0  3  0  0  0  0  0  0
   13.7400   11.3300  -22.2030 C   0  0  0  0  0  2  0  0  0  0  0  0
   13.4630   12.7950  -22.0660 C   0  0  0  0  0  2  0  0  0  0  0  0
   12.3440   13.2760  -22.9820 C   0  0  0  0  0  2  0  0  0  0  0  0
   10.9970   12.7590  -22.5920 C   0  0  0  0  0  1  0  0  0  0  0  0
   17.0050    4.9100  -19.8340 C   0  0  0  0  0  3  0  0  0  0  0  0
   18.2460    3.2740  -21.2680 C   0  0  0  0  0  1  0  0  0  0  0  0
   15.0900   10.9600  -21.7390 N   0  0  0  0  0  2  0  0  0  0  0  0
   17.1240    5.8440  -18.8720 N   0  0  0  0  0  2  0  0  0  0  0  0
   17.7320    8.7900  -18.4500 O   0  0  0  0  0  1  0  0  0  0  0  0
   14.9890    8.8710  -22.5360 O   0  0  0  0  0  1  0  0  0  0  0  0
   16.0850    4.9100  -20.6500 O   0  0  0  0  0  1  0  0  0  0  0  0
   18.8840    0.4990  -19.3710 O   0  0  0  0  0  1  0  0  0  0  0  0
   20.1100    2.3290  -18.3040 O   0  0  0  0  0  1  0  0  0  0  0  0
   18.8850    1.5870  -18.4290 S   0  0  0  0  0  4  0  0  0  0  0  0
  1  2  1  0
  1 15  1  0
  1 28  1  0
  2  3  1  0
  3  4  1  0
  3 14  1  0
  4  6  1  0
  5 19  1  0
  5 34  1  0
  6  7  1  0
  7  8  1  0
  7 12  1  0
  8  9  1  0
  9 10  1  0
  9 13  1  0
 10 11  1  0
 11 12  1  0
 13 34  1  0
 15 16  1  0
 15 29  1  0
 16 17  1  0
 17 18  1  0
 17 20  1  0
 19 25  1  0
 19 26  1  0
 20 27  1  0
 20 30  1  0
 21 22  1  0
 21 27  1  0
 22 23  1  0
 23 24  1  0
 25 28  1  0
 25 31  1  0
 32 34  1  0
 33 34  1  0
M  END
$$$$
