5qcu_A_E51_401
     RDKit          3D

 34 35  0  0  0  0  0  0  0  0999 V2000
   30.8310    6.0010   14.8780 C   0  0  0  0  0  3  0  0  0  0  0  0
   31.8290    6.9800   15.5260 C   0  0  0  0  0  2  0  0  0  0  0  0
   31.1410    8.1960   16.1650 C   0  0  0  0  0  3  0  0  0  0  0  0
   32.0980    9.0400   17.0460 C   0  0  0  0  0  2  0  0  0  0  0  0
   27.2770    7.0640   17.2170 C   0  0  0  0  0  2  0  0  0  0  0  0
   31.3530   10.0490   17.9860 C   0  0  0  0  0  2  0  0  0  0  0  0
   30.5250    9.3450   19.0290 C   0  0  0  0  0  3  0  0  0  0  0  0
   29.1380    9.2660   18.9060 C   0  0  0  0  0  2  0  0  0  0  0  0
   28.3590    8.5990   19.8520 C   0  0  0  0  0  3  0  0  0  0  0  0
   28.9940    8.0080   20.9300 C   0  0  0  0  0  2  0  0  0  0  0  0
   30.3650    8.0770   21.0640 C   0  0  0  0  0  2  0  0  0  0  0  0
   31.1250    8.7390   20.1190 C   0  0  0  0  0  2  0  0  0  0  0  0
   26.8530    8.4890   19.6900 C   0  0  0  0  0  2  0  0  0  0  0  0
   30.4660    9.0660   15.1000 C   0  0  0  0  0  1  0  0  0  0  0  0
   31.4960    4.7100   14.4190 C   0  0  0  0  0  3  0  0  0  0  0  0
   30.5040    3.7630   13.7670 C   0  0  0  0  0  2  0  0  0  0  0  0
   31.1460    2.8370   12.7470 C   0  0  0  0  0  3  0  0  0  0  0  0
   30.3000    1.5680   12.5640 C   0  0  0  0  0  1  0  0  0  0  0  0
   27.4080    5.7020   16.5460 C   0  0  0  0  0  3  0  0  0  0  0  0
   31.2750    3.5110   11.3960 C   0  0  0  0  0  3  0  0  0  0  0  0
   32.6700    3.9310    9.4110 C   0  0  0  0  0  2  0  0  0  0  0  0
   34.0080    3.5150    8.8550 C   0  0  0  0  0  2  0  0  0  0  0  0
   34.1200    3.5750    7.3250 C   0  0  0  0  0  2  0  0  0  0  0  0
   33.5340    4.8300    6.7090 C   0  0  0  0  0  1  0  0  0  0  0  0
   28.4420    5.9160   15.4470 C   0  0  0  0  0  3  0  0  0  0  0  0
   26.0740    5.2940   15.9210 C   0  0  0  0  0  1  0  0  0  0  0  0
   32.4190    3.3390   10.7460 N   0  0  0  0  0  2  0  0  0  0  0  0
   29.7220    5.7500   15.8010 N   0  0  0  0  0  2  0  0  0  0  0  0
   32.1200    4.0580   15.5250 O   0  0  0  0  0  1  0  0  0  0  0  0
   30.3540    4.1940   10.9570 O   0  0  0  0  0  1  0  0  0  0  0  0
   28.1020    6.2380   14.2870 O   0  0  0  0  0  1  0  0  0  0  0  0
   24.9600    7.1700   18.4210 O   0  0  0  0  0  1  0  0  0  0  0  0
   26.7370    5.8540   19.4820 O   0  0  0  0  0  1  0  0  0  0  0  0
   26.3530    7.0270   18.7470 S   0  0  0  0  0  4  0  0  0  0  0  0
  1  2  1  0
  1 15  1  0
  1 28  1  0
  2  3  1  0
  3  4  1  0
  3 14  1  0
  4  6  1  0
  5 19  1  0
  5 34  1  0
  6  7  1  0
  7  8  1  0
  7 12  1  0
  8  9  1  0
  9 10  1  0
  9 13  1  0
 10 11  1  0
 11 12  1  0
 13 34  1  0
 15 16  1  0
 15 29  1  0
 16 17  1  0
 17 18  1  0
 17 20  1  0
 19 25  1  0
 19 26  1  0
 20 27  1  0
 20 30  1  0
 21 22  1  0
 21 27  1  0
 22 23  1  0
 23 24  1  0
 25 28  1  0
 25 31  1  0
 32 34  1  0
 33 34  1  0
M  END
$$$$
