5qcv_A_E5A_401
     RDKit          3D

 37 39  0  0  0  0  0  0  0  0999 V2000
   31.8120    8.0250   15.9690 C   0  0  0  0  0  3  0  0  0  0  0  0
   31.9460    8.2470   17.3330 C   0  0  0  0  0  2  0  0  0  0  0  0
   31.4550    9.4110   17.9050 C   0  0  0  0  0  3  0  0  0  0  0  0
   30.8300   10.3770   17.1320 C   0  0  0  0  0  2  0  0  0  0  0  0
   30.7000   10.1600   15.7680 C   0  0  0  0  0  2  0  0  0  0  0  0
   27.7710    5.4840   16.1630 C   0  0  0  0  0  3  0  0  0  0  0  0
   31.1960    8.9980   15.1910 C   0  0  0  0  0  2  0  0  0  0  0  0
   30.7450   10.0670   20.0670 C   0  0  0  0  0  2  0  0  0  0  0  0
   30.4140    9.0970   21.1470 C   0  0  0  0  0  2  0  0  0  0  0  0
   29.0250    8.6080   20.9880 C   0  0  0  0  0  2  0  0  0  0  0  0
   28.9230    7.4840   20.0130 C   0  0  0  0  0  2  0  0  0  0  0  0
   27.5050    7.3230   19.4660 C   0  0  0  0  0  2  0  0  0  0  0  0
   27.4710    6.2400   18.4380 C   0  0  0  0  0  3  0  0  0  0  0  0
   28.9140    5.6510   15.1510 C   0  0  0  0  0  3  0  0  0  0  0  0
   31.9830    4.4630   14.4330 C   0  0  0  0  0  3  0  0  0  0  0  0
   31.0600    3.4970   13.6850 C   0  0  0  0  0  2  0  0  0  0  0  0
   31.1040    1.4890   12.2440 C   0  0  0  0  0  2  0  0  0  0  0  0
   30.9520    2.2310   10.9240 C   0  0  0  0  0  3  0  0  0  0  0  0
   32.0720    2.6500   10.2140 C   0  0  0  0  0  2  0  0  0  0  0  0
   31.9660    3.3340    9.0070 C   0  0  0  0  0  3  0  0  0  0  0  0
   30.7030    3.6030    8.5050 C   0  0  0  0  0  2  0  0  0  0  0  0
   29.5710    3.1990    9.2000 C   0  0  0  0  0  2  0  0  0  0  0  0
   29.6960    2.5180   10.4030 C   0  0  0  0  0  2  0  0  0  0  0  0
   33.2030    3.7800    8.2620 C   0  0  0  0  0  3  0  0  0  0  0  0
   33.7070    5.0850    8.7790 C   0  0  0  0  0  1  0  0  0  0  0  0
   34.3150    2.7380    8.3270 C   0  0  0  0  0  1  0  0  0  0  0  0
   31.3250    5.8180   14.7400 C   0  0  0  0  0  3  0  0  0  0  0  0
   26.4210    5.3650   15.4660 C   0  0  0  0  0  1  0  0  0  0  0  0
   28.1020    7.9140   16.7010 C   0  0  0  0  0  1  0  0  0  0  0  0
   32.3680    6.7560   15.3590 C   0  0  0  0  0  2  0  0  0  0  0  0
   27.7840    6.5580   17.1610 N   0  0  0  0  0  0  0  0  0  0  0  0
   31.8090    2.2690   13.2750 N   0  0  0  0  0  2  0  0  0  0  0  0
   30.1670    5.6660   15.6380 N   0  0  0  0  0  2  0  0  0  0  0  0
   31.6930    9.4590   19.2540 O   0  0  0  0  0  0  0  0  0  0  0  0
   27.2010    5.0940   18.7660 O   0  0  0  0  0  1  0  0  0  0  0  0
   33.1570    4.6900   13.6530 O   0  0  0  0  0  1  0  0  0  0  0  0
   28.6740    5.7630   13.9540 O   0  0  0  0  0  1  0  0  0  0  0  0
  1  2  1  0
  1  7  1  0
  1 30  1  0
  2  3  1  0
  3  4  1  0
  3 34  1  0
  4  5  1  0
  5  7  1  0
  6 14  1  0
  6 28  1  0
  6 31  1  0
  8  9  1  0
  8 34  1  0
  9 10  1  0
 10 11  1  0
 11 12  1  0
 12 13  1  0
 13 31  1  0
 13 35  1  0
 14 33  1  0
 14 37  1  0
 15 16  1  0
 15 27  1  0
 15 36  1  0
 16 32  1  0
 17 18  1  0
 17 32  1  0
 18 19  1  0
 18 23  1  0
 19 20  1  0
 20 21  1  0
 20 24  1  0
 21 22  1  0
 22 23  1  0
 24 25  1  0
 24 26  1  0
 27 30  1  0
 27 33  1  0
 29 31  1  0
M  END
$$$$
