5qcw_B_AR9_401
     RDKit          3D

 31 31  0  0  0  0  0  0  0  0999 V2000
   15.0330    5.7870  -15.5070 C   0  0  0  0  0  2  0  0  0  0  0  0
   16.3300    5.3120  -14.8860 C   0  0  0  0  0  2  0  0  0  0  0  0
   16.4510    3.8090  -14.7570 C   0  0  0  0  0  2  0  0  0  0  0  0
   17.7860    3.3600  -14.1640 C   0  0  0  0  0  2  0  0  0  0  0  0
   18.7660    2.8400  -15.1990 C   0  0  0  0  0  2  0  0  0  0  0  0
   18.0690    2.2150  -16.3830 C   0  0  0  0  0  2  0  0  0  0  0  0
   19.0060    1.7520  -17.4310 C   0  0  0  0  0  2  0  0  0  0  0  0
   16.2190    7.3560  -18.8770 C   0  0  0  0  0  3  0  0  0  0  0  0
   19.2140    2.7450  -18.5440 C   0  0  0  0  0  3  0  0  0  0  0  0
   18.2000    4.3140  -20.0930 C   0  0  0  0  0  3  0  0  0  0  0  0
   17.0810    5.3500  -20.0440 C   0  0  0  0  0  3  0  0  0  0  0  0
   18.1810    3.5920  -21.4320 C   0  0  0  0  0  1  0  0  0  0  0  0
   13.7150    5.9440  -17.6520 C   0  0  0  0  0  1  0  0  0  0  0  0
   16.7440    8.7180  -19.3710 C   0  0  0  0  0  3  0  0  0  0  0  0
   15.7820    7.3660  -17.4020 C   0  0  0  0  0  2  0  0  0  0  0  0
   17.1680    8.6650  -20.8430 C   0  0  0  0  0  2  0  0  0  0  0  0
   17.1390   10.0350  -21.5390 C   0  0  0  0  0  3  0  0  0  0  0  0
   18.1670   10.0930  -22.6840 C   0  0  0  0  0  1  0  0  0  0  0  0
   15.7870   10.3280  -22.1490 C   0  0  0  0  0  3  0  0  0  0  0  0
   14.0410   11.9800  -22.5400 C   0  0  0  0  0  2  0  0  0  0  0  0
   13.7880   13.4750  -22.3670 C   0  0  0  0  0  2  0  0  0  0  0  0
   12.5880   13.9970  -23.2870 C   0  0  0  0  0  2  0  0  0  0  0  0
   11.2210   13.5000  -22.8360 C   0  0  0  0  0  1  0  0  0  0  0  0
   15.0990    6.0460  -17.0240 C   0  0  0  0  0  3  0  0  0  0  0  0
   17.2030    6.2970  -19.0950 N   0  0  0  0  0  2  0  0  0  0  0  0
   18.1150    3.3580  -18.9960 N   0  0  0  0  0  2  0  0  0  0  0  0
   15.3070   11.5560  -21.9750 N   0  0  0  0  0  2  0  0  0  0  0  0
   16.1490    5.3020  -20.8460 O   0  0  0  0  0  1  0  0  0  0  0  0
   20.3280    2.9430  -19.0260 O   0  0  0  0  0  1  0  0  0  0  0  0
   17.8610    9.1520  -18.5800 O   0  0  0  0  0  1  0  0  0  0  0  0
   15.2060    9.4790  -22.8170 O   0  0  0  0  0  1  0  0  0  0  0  0
  1  2  1  0
  1 24  1  0
  2  3  1  0
  3  4  1  0
  4  5  1  0
  5  6  1  0
  6  7  1  0
  7  9  1  0
  8 14  1  0
  8 15  1  0
  8 25  1  0
  9 26  1  0
  9 29  1  0
 10 11  1  0
 10 12  1  0
 10 26  1  0
 11 25  1  0
 11 28  1  0
 13 24  1  0
 14 16  1  0
 14 30  1  0
 15 24  1  0
 16 17  1  0
 17 18  1  0
 17 19  1  0
 19 27  1  0
 19 31  1  0
 20 21  1  0
 20 27  1  0
 21 22  1  0
 22 23  1  0
M  END
$$$$
