5qcw_C_AR9_401
     RDKit          3D

 31 31  0  0  0  0  0  0  0  0999 V2000
    5.3420  -42.8330   48.3530 C   0  0  0  0  0  2  0  0  0  0  0  0
    4.9360  -41.7870   47.3380 C   0  0  0  0  0  2  0  0  0  0  0  0
    4.0450  -40.7230   47.8880 C   0  0  0  0  0  2  0  0  0  0  0  0
    3.6420  -39.6960   46.8580 C   0  0  0  0  0  2  0  0  0  0  0  0
    4.4740  -38.4670   46.9470 C   0  0  0  0  0  2  0  0  0  0  0  0
    4.7490  -38.1380   48.3770 C   0  0  0  0  0  2  0  0  0  0  0  0
    5.5260  -36.9270   48.5430 C   0  0  0  0  0  2  0  0  0  0  0  0
    9.1800  -42.1970   48.4780 C   0  0  0  0  0  3  0  0  0  0  0  0
    7.0120  -37.1500   48.4270 C   0  0  0  0  0  3  0  0  0  0  0  0
    8.9430  -38.4430   49.1530 C   0  0  0  0  0  3  0  0  0  0  0  0
    9.2140  -39.9160   49.4190 C   0  0  0  0  0  3  0  0  0  0  0  0
    9.6480  -37.5870   50.2030 C   0  0  0  0  0  1  0  0  0  0  0  0
    6.8940  -43.4650   50.2410 C   0  0  0  0  0  1  0  0  0  0  0  0
   10.4350  -42.6680   47.7250 C   0  0  0  0  0  3  0  0  0  0  0  0
    7.8920  -42.8920   47.9950 C   0  0  0  0  0  2  0  0  0  0  0  0
   11.6860  -41.9000   48.1580 C   0  0  0  0  0  2  0  0  0  0  0  0
   13.0030  -42.6590   47.8550 C   0  0  0  0  0  3  0  0  0  0  0  0
   14.1620  -41.6920   47.7050 C   0  0  0  0  0  1  0  0  0  0  0  0
   13.3630  -43.6450   48.9660 C   0  0  0  0  0  3  0  0  0  0  0  0
   14.2130  -45.8660   49.5510 C   0  0  0  0  0  2  0  0  0  0  0  0
   14.8910  -47.0740   48.8770 C   0  0  0  0  0  2  0  0  0  0  0  0
   15.6510  -47.9290   49.8530 C   0  0  0  0  0  2  0  0  0  0  0  0
   14.7180  -48.6730   50.7980 C   0  0  0  0  0  1  0  0  0  0  0  0
    6.7360  -42.6250   48.9710 C   0  0  0  0  0  3  0  0  0  0  0  0
    9.0150  -40.7460   48.3830 N   0  0  0  0  0  2  0  0  0  0  0  0
    7.5120  -38.1580   49.1490 N   0  0  0  0  0  2  0  0  0  0  0  0
   13.8090  -44.8380   48.5850 N   0  0  0  0  0  2  0  0  0  0  0  0
    9.6010  -40.2930   50.5230 O   0  0  0  0  0  1  0  0  0  0  0  0
    7.7090  -36.4200   47.7260 O   0  0  0  0  0  1  0  0  0  0  0  0
   10.2680  -42.5050   46.3150 O   0  0  0  0  0  1  0  0  0  0  0  0
   13.2800  -43.3220   50.1460 O   0  0  0  0  0  1  0  0  0  0  0  0
  1  2  1  0
  1 24  1  0
  2  3  1  0
  3  4  1  0
  4  5  1  0
  5  6  1  0
  6  7  1  0
  7  9  1  0
  8 14  1  0
  8 15  1  0
  8 25  1  0
  9 26  1  0
  9 29  1  0
 10 11  1  0
 10 12  1  0
 10 26  1  0
 11 25  1  0
 11 28  1  0
 13 24  1  0
 14 16  1  0
 14 30  1  0
 15 24  1  0
 16 17  1  0
 17 18  1  0
 17 19  1  0
 19 27  1  0
 19 31  1  0
 20 21  1  0
 20 27  1  0
 21 22  1  0
 22 23  1  0
M  END
$$$$
