5qcx_B_E5D_401
     RDKit          3D

 37 39  0  0  0  0  0  0  0  0999 V2000
   19.8340    3.2420  -15.1330 C   0  0  0  0  0  1  0  0  0  0  0  0
   13.8560    6.3980  -18.2200 C   0  0  0  0  0  1  0  0  0  0  0  0
   15.8310    8.0150  -17.9640 C   0  0  0  0  0  2  0  0  0  0  0  0
   16.2790    7.9970  -19.4290 C   0  0  0  0  0  3  0  0  0  0  0  0
   16.8170    5.9410  -20.7080 C   0  0  0  0  0  3  0  0  0  0  0  0
   17.6160    4.6690  -20.7180 C   0  0  0  0  0  3  0  0  0  0  0  0
   18.0740    4.1890  -19.4940 C   0  0  0  0  0  2  0  0  0  0  0  0
   18.7620    2.9750  -19.4140 C   0  0  0  0  0  3  0  0  0  0  0  0
   19.0580    2.2840  -20.5800 C   0  0  0  0  0  2  0  0  0  0  0  0
   19.0780    2.0480  -15.7630 C   0  0  0  0  0  2  0  0  0  0  0  0
   18.6030    2.7550  -21.8000 C   0  0  0  0  0  2  0  0  0  0  0  0
   17.8780    3.9380  -21.8700 C   0  0  0  0  0  2  0  0  0  0  0  0
   19.3010    2.5270  -18.0970 C   0  0  0  0  0  3  0  0  0  0  0  0
   17.0640    9.2660  -19.8500 C   0  0  0  0  0  3  0  0  0  0  0  0
   17.3130    9.2780  -21.3660 C   0  0  0  0  0  2  0  0  0  0  0  0
   17.7830   10.9020  -23.1550 C   0  0  0  0  0  2  0  0  0  0  0  0
   16.3770   10.9810  -23.7330 C   0  0  0  0  0  3  0  0  0  0  0  0
   15.4500   11.8920  -23.2340 C   0  0  0  0  0  2  0  0  0  0  0  0
   14.1600   11.9800  -23.7510 C   0  0  0  0  0  3  0  0  0  0  0  0
   13.7990   11.1380  -24.7940 C   0  0  0  0  0  2  0  0  0  0  0  0
   14.7080   10.2300  -25.3050 C   0  0  0  0  0  2  0  0  0  0  0  0
   15.9890   10.1530  -24.7790 C   0  0  0  0  0  2  0  0  0  0  0  0
   13.1640   12.9850  -23.1980 C   0  0  0  0  0  3  0  0  0  0  0  0
   12.3750   12.4250  -22.0280 C   0  0  0  0  0  1  0  0  0  0  0  0
   13.8410   14.2830  -22.8030 C   0  0  0  0  0  1  0  0  0  0  0  0
   16.9890    2.5890  -16.9930 C   0  0  0  0  0  2  0  0  0  0  0  0
   16.4710    3.5430  -15.9240 C   0  0  0  0  0  2  0  0  0  0  0  0
   14.9830    3.8290  -16.1480 C   0  0  0  0  0  2  0  0  0  0  0  0
   14.4700    5.1410  -15.5590 C   0  0  0  0  0  2  0  0  0  0  0  0
   15.1890    6.4010  -16.0460 C   0  0  0  0  0  2  0  0  0  0  0  0
   15.2340    6.6240  -17.5700 C   0  0  0  0  0  3  0  0  0  0  0  0
   17.0270    6.7620  -19.6670 N   0  0  0  0  0  2  0  0  0  0  0  0
   17.8000   10.6330  -21.7130 N   0  0  0  0  0  2  0  0  0  0  0  0
   18.4620    2.4150  -17.0300 N   0  0  0  0  0  0  0  0  0  0  0  0
   16.0060    6.1930  -21.5970 O   0  0  0  0  0  1  0  0  0  0  0  0
   20.4980    2.3440  -17.9880 O   0  0  0  0  0  1  0  0  0  0  0  0
   16.3050   10.4450  -19.5120 O   0  0  0  0  0  1  0  0  0  0  0  0
  1 10  1  0
  2 31  1  0
  3  4  1  0
  3 31  1  0
  4 14  1  0
  4 32  1  0
  5  6  1  0
  5 32  1  0
  5 35  1  0
  6  7  1  0
  6 12  1  0
  7  8  1  0
  8  9  1  0
  8 13  1  0
  9 11  1  0
 10 34  1  0
 11 12  1  0
 13 34  1  0
 13 36  1  0
 14 15  1  0
 14 37  1  0
 15 33  1  0
 16 17  1  0
 16 33  1  0
 17 18  1  0
 17 22  1  0
 18 19  1  0
 19 20  1  0
 19 23  1  0
 20 21  1  0
 21 22  1  0
 23 24  1  0
 23 25  1  0
 26 27  1  0
 26 34  1  0
 27 28  1  0
 28 29  1  0
 29 30  1  0
 30 31  1  0
M  END
$$$$
