5qcx_C_E5D_401
     RDKit          3D

 37 39  0  0  0  0  0  0  0  0999 V2000
    4.9280  -38.6670   46.1410 C   0  0  0  0  0  1  0  0  0  0  0  0
    7.9000  -44.0050   50.3320 C   0  0  0  0  0  1  0  0  0  0  0  0
    9.0780  -43.7540   48.1080 C   0  0  0  0  0  2  0  0  0  0  0  0
   10.3180  -42.9550   48.5310 C   0  0  0  0  0  3  0  0  0  0  0  0
   10.2440  -40.8840   49.8420 C   0  0  0  0  0  3  0  0  0  0  0  0
    9.7050  -39.4920   49.9670 C   0  0  0  0  0  3  0  0  0  0  0  0
    8.5580  -39.2040   49.2340 C   0  0  0  0  0  2  0  0  0  0  0  0
    7.9330  -37.9610   49.3460 C   0  0  0  0  0  3  0  0  0  0  0  0
    8.5010  -36.9820   50.1580 C   0  0  0  0  0  2  0  0  0  0  0  0
    4.5970  -38.1950   47.5690 C   0  0  0  0  0  2  0  0  0  0  0  0
    9.6340  -37.2690   50.9040 C   0  0  0  0  0  2  0  0  0  0  0  0
   10.2300  -38.5220   50.8200 C   0  0  0  0  0  2  0  0  0  0  0  0
    6.7560  -37.6630   48.4670 C   0  0  0  0  0  3  0  0  0  0  0  0
   11.5070  -43.1270   47.5650 C   0  0  0  0  0  3  0  0  0  0  0  0
   12.8160  -42.6550   48.2260 C   0  0  0  0  0  2  0  0  0  0  0  0
   15.2660  -42.9100   47.9800 C   0  0  0  0  0  2  0  0  0  0  0  0
   15.4310  -43.7530   49.2390 C   0  0  0  0  0  3  0  0  0  0  0  0
   15.3820  -45.1460   49.1780 C   0  0  0  0  0  2  0  0  0  0  0  0
   15.5480  -45.9360   50.3130 C   0  0  0  0  0  3  0  0  0  0  0  0
   15.7580  -45.3070   51.5350 C   0  0  0  0  0  2  0  0  0  0  0  0
   15.8210  -43.9240   51.6150 C   0  0  0  0  0  2  0  0  0  0  0  0
   15.6610  -43.1530   50.4750 C   0  0  0  0  0  2  0  0  0  0  0  0
   15.4740  -47.4590   50.2340 C   0  0  0  0  0  3  0  0  0  0  0  0
   14.0430  -47.9520   50.3080 C   0  0  0  0  0  1  0  0  0  0  0  0
   16.1440  -48.0230   49.0090 C   0  0  0  0  0  1  0  0  0  0  0  0
    5.4480  -39.6720   49.3710 C   0  0  0  0  0  2  0  0  0  0  0  0
    5.2270  -41.0000   48.6500 C   0  0  0  0  0  2  0  0  0  0  0  0
    5.0700  -42.1440   49.6630 C   0  0  0  0  0  2  0  0  0  0  0  0
    5.2140  -43.5560   49.0720 C   0  0  0  0  0  2  0  0  0  0  0  0
    6.5020  -43.7710   48.2360 C   0  0  0  0  0  2  0  0  0  0  0  0
    7.8270  -43.3950   48.9440 C   0  0  0  0  0  3  0  0  0  0  0  0
    9.9450  -41.5560   48.7220 N   0  0  0  0  0  2  0  0  0  0  0  0
   13.9360  -43.0180   47.3330 N   0  0  0  0  0  2  0  0  0  0  0  0
    5.6770  -38.4980   48.4840 N   0  0  0  0  0  0  0  0  0  0  0  0
   10.8800  -41.4020   50.7520 O   0  0  0  0  0  1  0  0  0  0  0  0
    6.8240  -36.7200   47.7020 O   0  0  0  0  0  1  0  0  0  0  0  0
   11.6410  -44.5090   47.2700 O   0  0  0  0  0  1  0  0  0  0  0  0
  1 10  1  0
  2 31  1  0
  3  4  1  0
  3 31  1  0
  4 14  1  0
  4 32  1  0
  5  6  1  0
  5 32  1  0
  5 35  1  0
  6  7  1  0
  6 12  1  0
  7  8  1  0
  8  9  1  0
  8 13  1  0
  9 11  1  0
 10 34  1  0
 11 12  1  0
 13 34  1  0
 13 36  1  0
 14 15  1  0
 14 37  1  0
 15 33  1  0
 16 17  1  0
 16 33  1  0
 17 18  1  0
 17 22  1  0
 18 19  1  0
 19 20  1  0
 19 23  1  0
 20 21  1  0
 21 22  1  0
 23 24  1  0
 23 25  1  0
 26 27  1  0
 26 34  1  0
 27 28  1  0
 28 29  1  0
 29 30  1  0
 30 31  1  0
M  END
$$$$
