5qcz_A_E5V_401
     RDKit          3D

 37 40  0  0  0  0  0  0  0  0999 V2000
   33.0600    4.7000    9.3570 C   0  0  0  0  0  1  0  0  0  0  0  0
   32.1980    4.9290   14.9710 C   0  0  0  0  0  3  0  0  0  0  0  0
   31.6420    6.3330   15.2680 C   0  0  0  0  0  3  0  0  0  0  0  0
   32.7120    7.2230   15.9190 C   0  0  0  0  0  2  0  0  0  0  0  0
   32.1560    8.5410   16.4170 C   0  0  0  0  0  3  0  0  0  0  0  0
   31.9020    9.5800   15.5320 C   0  0  0  0  0  2  0  0  0  0  0  0
   31.3870   10.7880   15.9800 C   0  0  0  0  0  2  0  0  0  0  0  0
   31.1110   10.9820   17.3230 C   0  0  0  0  0  2  0  0  0  0  0  0
   31.3630    9.9510   18.2200 C   0  0  0  0  0  3  0  0  0  0  0  0
   31.8740    8.7300   17.7760 C   0  0  0  0  0  2  0  0  0  0  0  0
   31.3680    9.2990   20.5300 C   0  0  0  0  0  2  0  0  0  0  0  0
   30.2940    9.3640   21.5620 C   0  0  0  0  0  2  0  0  0  0  0  0
   28.9630    8.8130   21.0900 C   0  0  0  0  0  2  0  0  0  0  0  0
   28.9640    7.2890   20.8490 C   0  0  0  0  0  2  0  0  0  0  0  0
   27.3820    6.8270   18.9840 C   0  0  0  0  0  3  0  0  0  0  0  0
   26.0500    6.7940   18.5370 C   0  0  0  0  0  2  0  0  0  0  0  0
   25.7570    6.7690   17.1770 C   0  0  0  0  0  3  0  0  0  0  0  0
   24.3160    6.7520   16.6960 C   0  0  0  0  0  2  0  0  0  0  0  0
   32.1040    3.2580   11.0350 C   0  0  0  0  0  2  0  0  0  0  0  0
   23.5480    4.6830   17.6030 C   0  0  0  0  0  1  0  0  0  0  0  0
   26.8090    6.7530   16.2590 C   0  0  0  0  0  2  0  0  0  0  0  0
   28.1310    6.7510   16.6920 C   0  0  0  0  0  3  0  0  0  0  0  0
   28.4130    6.8060   18.0530 C   0  0  0  0  0  2  0  0  0  0  0  0
   29.2610    6.7630   15.7060 C   0  0  0  0  0  3  0  0  0  0  0  0
   30.8110    2.7700   11.7190 C   0  0  0  0  0  3  0  0  0  0  0  0
   31.0040    1.9590   12.9650 C   0  0  0  0  0  2  0  0  0  0  0  0
   31.1830    4.0400   14.2560 C   0  0  0  0  0  3  0  0  0  0  0  0
   30.7360    4.7750   12.9950 C   0  0  0  0  0  2  0  0  0  0  0  0
   27.6740    6.8460   20.3390 N   0  0  0  0  0  2  0  0  0  0  0  0
   30.4540    6.3080   16.1190 N   0  0  0  0  0  2  0  0  0  0  0  0
   31.8280    2.7520   13.8980 N   0  0  0  0  0  2  0  0  0  0  0  0
   33.3130    5.1190   14.1030 O   0  0  0  0  0  1  0  0  0  0  0  0
   31.8480    4.0970    9.8880 O   0  0  0  0  0  0  0  0  0  0  0  0
   31.0460   10.2510   19.5240 O   0  0  0  0  0  0  0  0  0  0  0  0
   23.8680    5.4390   16.4130 O   0  0  0  0  0  0  0  0  0  0  0  0
   29.0960    7.1900   14.5690 O   0  0  0  0  0  1  0  0  0  0  0  0
   30.0260    3.9120   12.0820 O   0  0  0  0  0  0  0  0  0  0  0  0
  1 33  1  0
  2  3  1  0
  2 27  1  0
  2 32  1  0
  3  4  1  0
  3 30  1  0
  4  5  1  0
  5  6  1  0
  5 10  1  0
  6  7  1  0
  7  8  1  0
  8  9  1  0
  9 10  1  0
  9 34  1  0
 11 12  1  0
 11 34  1  0
 12 13  1  0
 13 14  1  0
 14 29  1  0
 15 16  1  0
 15 23  1  0
 15 29  1  0
 16 17  1  0
 17 18  1  0
 17 21  1  0
 18 35  1  0
 19 25  1  0
 19 33  1  0
 20 35  1  0
 21 22  1  0
 22 23  1  0
 22 24  1  0
 24 30  1  0
 24 36  1  0
 25 26  1  0
 25 37  1  0
 26 31  1  0
 27 28  1  0
 27 31  1  0
 28 37  1  0
M  END
$$$$
