5qd0_A_E5Y_401
     RDKit          3D

 34 35  0  0  0  0  0  0  0  0999 V2000
   33.8880    4.8890    8.4760 C   0  0  0  0  0  2  0  0  0  0  0  0
   34.6060    5.7350    7.4940 C   0  0  0  0  0  1  0  0  0  0  0  0
   30.8040    2.1900   12.3410 C   0  0  0  0  0  2  0  0  0  0  0  0
   30.6780    4.1330   13.8810 C   0  0  0  0  0  2  0  0  0  0  0  0
   31.6180    4.9450   14.7880 C   0  0  0  0  0  3  0  0  0  0  0  0
   30.9600    6.3080   15.0960 C   0  0  0  0  0  3  0  0  0  0  0  0
   28.4990    6.1470   15.2980 C   0  0  0  0  0  3  0  0  0  0  0  0
   27.3270    5.9210   16.2630 C   0  0  0  0  0  3  0  0  0  0  0  0
   26.8440    6.7550   18.4500 C   0  0  0  0  0  3  0  0  0  0  0  0
   26.7380    7.8740   19.4430 C   0  0  0  0  0  2  0  0  0  0  0  0
   30.9300    2.9660   11.0670 C   0  0  0  0  0  3  0  0  0  0  0  0
   28.5720    9.0570   20.4220 C   0  0  0  0  0  2  0  0  0  0  0  0
   29.9730    8.7890   20.9100 C   0  0  0  0  0  2  0  0  0  0  0  0
   31.0450    9.3370   19.9620 C   0  0  0  0  0  2  0  0  0  0  0  0
   32.0800    3.4220   10.4180 C   0  0  0  0  0  2  0  0  0  0  0  0
   30.4740   10.1640   18.7940 C   0  0  0  0  0  2  0  0  0  0  0  0
   31.5140   10.6110   17.7970 C   0  0  0  0  0  2  0  0  0  0  0  0
   32.1910    9.4550   17.0870 C   0  0  0  0  0  2  0  0  0  0  0  0
   31.2420    8.5730   16.2930 C   0  0  0  0  0  3  0  0  0  0  0  0
   31.9050    7.2710   15.8190 C   0  0  0  0  0  2  0  0  0  0  0  0
   30.6090    9.3510   15.1420 C   0  0  0  0  0  1  0  0  0  0  0  0
   31.6390    4.0960    9.3140 C   0  0  0  0  0  3  0  0  0  0  0  0
   27.4690    8.3920   16.6490 C   0  0  0  0  0  1  0  0  0  0  0  0
   26.0260    5.6210   15.5360 C   0  0  0  0  0  1  0  0  0  0  0  0
   32.3880    4.8150    8.2200 C   0  0  0  0  0  2  0  0  0  0  0  0
   30.2950    4.0320    9.3410 N   0  0  0  0  0  2  0  0  0  0  0  0
   31.3820    2.8710   13.4850 N   0  0  0  0  0  2  0  0  0  0  0  0
   29.8220    3.3420   10.4170 N   0  0  0  0  0  2  0  0  0  0  0  0
   29.7260    6.1320   15.8630 N   0  0  0  0  0  2  0  0  0  0  0  0
   27.2040    7.0470   17.1780 N   0  0  0  0  0  0  0  0  0  0  0  0
   32.8830    5.1160   14.1340 O   0  0  0  0  0  1  0  0  0  0  0  0
   27.8620    7.8300   20.3320 O   0  0  0  0  0  0  0  0  0  0  0  0
   26.6510    5.6030   18.8160 O   0  0  0  0  0  1  0  0  0  0  0  0
   28.3090    6.3220   14.0950 O   0  0  0  0  0  1  0  0  0  0  0  0
  1  2  1  0
  1 25  1  0
  3 11  1  0
  3 27  1  0
  4  5  1  0
  4 27  1  0
  5  6  1  0
  5 31  1  0
  6 20  1  0
  6 29  1  0
  7  8  1  0
  7 29  1  0
  7 34  1  0
  8 24  1  0
  8 30  1  0
  9 10  1  0
  9 30  1  0
  9 33  1  0
 10 32  1  0
 11 15  1  0
 11 28  1  0
 12 13  1  0
 12 32  1  0
 13 14  1  0
 14 16  1  0
 15 22  1  0
 16 17  1  0
 17 18  1  0
 18 19  1  0
 19 20  1  0
 19 21  1  0
 22 25  1  0
 22 26  1  0
 23 30  1  0
 26 28  1  0
M  END
$$$$
