5qd0_B_E5Y_401
     RDKit          3D

 34 35  0  0  0  0  0  0  0  0999 V2000
   10.6760   12.3880  -20.7030 C   0  0  0  0  0  2  0  0  0  0  0  0
    9.7100   13.5070  -20.9870 C   0  0  0  0  0  1  0  0  0  0  0  0
   16.0980   10.3800  -20.9760 C   0  0  0  0  0  2  0  0  0  0  0  0
   15.6410    8.6880  -19.2710 C   0  0  0  0  0  2  0  0  0  0  0  0
   15.4350    8.6650  -17.7590 C   0  0  0  0  0  3  0  0  0  0  0  0
   14.7270    7.3610  -17.3480 C   0  0  0  0  0  3  0  0  0  0  0  0
   15.3750    5.4900  -18.7740 C   0  0  0  0  0  3  0  0  0  0  0  0
   16.3620    4.3310  -19.0060 C   0  0  0  0  0  3  0  0  0  0  0  0
   17.3770    2.7280  -17.5160 C   0  0  0  0  0  3  0  0  0  0  0  0
   17.2480    1.6850  -16.4210 C   0  0  0  0  0  2  0  0  0  0  0  0
   14.6800   10.4960  -21.4310 C   0  0  0  0  0  3  0  0  0  0  0  0
   16.5630    2.2830  -14.2320 C   0  0  0  0  0  2  0  0  0  0  0  0
   16.9660    3.1970  -13.1000 C   0  0  0  0  0  2  0  0  0  0  0  0
   15.8760    4.1790  -12.7210 C   0  0  0  0  0  2  0  0  0  0  0  0
   13.7390   11.5030  -21.1830 C   0  0  0  0  0  2  0  0  0  0  0  0
   14.4890    3.8510  -13.2770 C   0  0  0  0  0  2  0  0  0  0  0  0
   13.4330    4.9200  -12.9530 C   0  0  0  0  0  2  0  0  0  0  0  0
   13.5840    6.2330  -13.7550 C   0  0  0  0  0  2  0  0  0  0  0  0
   13.8650    6.0810  -15.2790 C   0  0  0  0  0  3  0  0  0  0  0  0
   14.3970    7.3890  -15.8640 C   0  0  0  0  0  2  0  0  0  0  0  0
   12.6250    5.6360  -16.0270 C   0  0  0  0  0  1  0  0  0  0  0  0
   12.6030   11.1130  -21.8410 C   0  0  0  0  0  3  0  0  0  0  0  0
   14.9320    2.9640  -17.4570 C   0  0  0  0  0  1  0  0  0  0  0  0
   16.2520    3.7640  -20.4150 C   0  0  0  0  0  1  0  0  0  0  0  0
   11.2220   11.7550  -21.9760 C   0  0  0  0  0  2  0  0  0  0  0  0
   12.8900    9.9370  -22.4340 N   0  0  0  0  0  2  0  0  0  0  0  0
   16.2470    9.9640  -19.5890 N   0  0  0  0  0  2  0  0  0  0  0  0
   14.1650    9.5290  -22.1980 N   0  0  0  0  0  2  0  0  0  0  0  0
   15.5550    6.2020  -17.6670 N   0  0  0  0  0  2  0  0  0  0  0  0
   16.2570    3.3040  -17.9710 N   0  0  0  0  0  0  0  0  0  0  0  0
   14.6500    9.7990  -17.3950 O   0  0  0  0  0  1  0  0  0  0  0  0
   17.6240    2.2220  -15.1680 O   0  0  0  0  0  0  0  0  0  0  0  0
   18.4820    3.0270  -17.9600 O   0  0  0  0  0  1  0  0  0  0  0  0
   14.4970    5.7490  -19.5910 O   0  0  0  0  0  1  0  0  0  0  0  0
  1  2  1  0
  1 25  1  0
  3 11  1  0
  3 27  1  0
  4  5  1  0
  4 27  1  0
  5  6  1  0
  5 31  1  0
  6 20  1  0
  6 29  1  0
  7  8  1  0
  7 29  1  0
  7 34  1  0
  8 24  1  0
  8 30  1  0
  9 10  1  0
  9 30  1  0
  9 33  1  0
 10 32  1  0
 11 15  1  0
 11 28  1  0
 12 13  1  0
 12 32  1  0
 13 14  1  0
 14 16  1  0
 15 22  1  0
 16 17  1  0
 17 18  1  0
 18 19  1  0
 19 20  1  0
 19 21  1  0
 22 25  1  0
 22 26  1  0
 23 30  1  0
 26 28  1  0
M  END
$$$$
