5qd0_C_E5Y_401
     RDKit          3D

 34 35  0  0  0  0  0  0  0  0999 V2000
   12.9970  -47.8540   48.2700 C   0  0  0  0  0  2  0  0  0  0  0  0
   13.5050  -49.2300   48.5950 C   0  0  0  0  0  1  0  0  0  0  0  0
   13.1130  -42.6250   46.0860 C   0  0  0  0  0  2  0  0  0  0  0  0
   10.6730  -42.6350   46.2420 C   0  0  0  0  0  2  0  0  0  0  0  0
    9.4570  -43.1700   45.4960 C   0  0  0  0  0  3  0  0  0  0  0  0
    8.2300  -42.8970   46.3880 C   0  0  0  0  0  3  0  0  0  0  0  0
    8.3340  -40.7050   47.5550 C   0  0  0  0  0  3  0  0  0  0  0  0
    7.9950  -39.2010   47.5040 C   0  0  0  0  0  3  0  0  0  0  0  0
    6.0540  -37.9560   46.8080 C   0  0  0  0  0  3  0  0  0  0  0  0
    4.5680  -37.6760   46.8720 C   0  0  0  0  0  2  0  0  0  0  0  0
   13.2630  -43.6130   47.1950 C   0  0  0  0  0  3  0  0  0  0  0  0
    2.9820  -39.1790   45.9260 C   0  0  0  0  0  2  0  0  0  0  0  0
    2.7230  -39.9210   44.6360 C   0  0  0  0  0  2  0  0  0  0  0  0
    2.7500  -41.4400   44.8310 C   0  0  0  0  0  2  0  0  0  0  0  0
   13.4530  -44.9980   47.1350 C   0  0  0  0  0  2  0  0  0  0  0  0
    2.9600  -41.8670   46.3000 C   0  0  0  0  0  2  0  0  0  0  0  0
    3.1060  -43.3620   46.4970 C   0  0  0  0  0  2  0  0  0  0  0  0
    4.4300  -43.9120   46.0270 C   0  0  0  0  0  2  0  0  0  0  0  0
    5.6630  -43.2140   46.6120 C   0  0  0  0  0  3  0  0  0  0  0  0
    6.9840  -43.6650   45.9440 C   0  0  0  0  0  2  0  0  0  0  0  0
    5.7090  -43.3820   48.1300 C   0  0  0  0  0  1  0  0  0  0  0  0
   13.5050  -45.4160   48.4370 C   0  0  0  0  0  3  0  0  0  0  0  0
    5.7190  -39.7380   48.4650 C   0  0  0  0  0  1  0  0  0  0  0  0
    8.7540  -38.4290   48.5810 C   0  0  0  0  0  1  0  0  0  0  0  0
   13.6810  -46.7600   49.0360 C   0  0  0  0  0  2  0  0  0  0  0  0
   13.3350  -44.3190   49.1980 N   0  0  0  0  0  2  0  0  0  0  0  0
   11.8400  -42.7330   45.3860 N   0  0  0  0  0  2  0  0  0  0  0  0
   13.1770  -43.1880   48.4560 N   0  0  0  0  0  2  0  0  0  0  0  0
    7.9540  -41.4500   46.4830 N   0  0  0  0  0  2  0  0  0  0  0  0
    6.5430  -38.9400   47.5610 N   0  0  0  0  0  0  0  0  0  0  0  0
    9.6360  -44.5700   45.2800 O   0  0  0  0  0  1  0  0  0  0  0  0
    3.9060  -38.1270   45.6970 O   0  0  0  0  0  0  0  0  0  0  0  0
    6.7760  -37.2990   46.0700 O   0  0  0  0  0  1  0  0  0  0  0  0
    8.9420  -41.1790   48.5160 O   0  0  0  0  0  1  0  0  0  0  0  0
  1  2  1  0
  1 25  1  0
  3 11  1  0
  3 27  1  0
  4  5  1  0
  4 27  1  0
  5  6  1  0
  5 31  1  0
  6 20  1  0
  6 29  1  0
  7  8  1  0
  7 29  1  0
  7 34  1  0
  8 24  1  0
  8 30  1  0
  9 10  1  0
  9 30  1  0
  9 33  1  0
 10 32  1  0
 11 15  1  0
 11 28  1  0
 12 13  1  0
 12 32  1  0
 13 14  1  0
 14 16  1  0
 15 22  1  0
 16 17  1  0
 17 18  1  0
 18 19  1  0
 19 20  1  0
 19 21  1  0
 22 25  1  0
 22 26  1  0
 23 30  1  0
 26 28  1  0
M  END
$$$$
