5qd1_A_E61_401
     RDKit          3D

 38 40  0  0  0  0  0  0  0  0999 V2000
   32.9620    9.0540   16.8340 C   0  0  0  0  0  2  0  0  0  0  0  0
   32.3430   10.2840   17.5090 C   0  0  0  0  0  2  0  0  0  0  0  0
   31.5370    9.3710   19.5620 C   0  0  0  0  0  2  0  0  0  0  0  0
   30.3580    9.5990   20.5020 C   0  0  0  0  0  2  0  0  0  0  0  0
   29.0520    8.9710   19.9990 C   0  0  0  0  0  2  0  0  0  0  0  0
   28.9800    7.4120   20.2120 C   0  0  0  0  0  2  0  0  0  0  0  0
   31.6070    6.1160   14.7040 C   0  0  0  0  0  3  0  0  0  0  0  0
   27.4200    6.5250   18.4860 C   0  0  0  0  0  3  0  0  0  0  0  0
   28.4180    6.5540   17.5110 C   0  0  0  0  0  2  0  0  0  0  0  0
   28.1190    6.2120   16.1880 C   0  0  0  0  0  3  0  0  0  0  0  0
   26.8130    5.8800   15.8360 C   0  0  0  0  0  2  0  0  0  0  0  0
   25.8030    5.8590   16.8010 C   0  0  0  0  0  3  0  0  0  0  0  0
   26.1190    6.1770   18.1210 C   0  0  0  0  0  2  0  0  0  0  0  0
   24.3890    5.4870   16.4190 C   0  0  0  0  0  2  0  0  0  0  0  0
   22.7380    4.1860   17.5450 C   0  0  0  0  0  1  0  0  0  0  0  0
   29.1970    6.2500   15.1500 C   0  0  0  0  0  3  0  0  0  0  0  0
   32.6540    7.0320   15.3340 C   0  0  0  0  0  2  0  0  0  0  0  0
   31.5850    9.2270   14.7140 C   0  0  0  0  0  1  0  0  0  0  0  0
   32.2230    4.7290   14.4500 C   0  0  0  0  0  3  0  0  0  0  0  0
   31.3280    3.8160   13.6110 C   0  0  0  0  0  2  0  0  0  0  0  0
   31.4790    1.6860   12.3830 C   0  0  0  0  0  2  0  0  0  0  0  0
   31.3060    2.4110   11.0540 C   0  0  0  0  0  3  0  0  0  0  0  0
   32.4140    2.7920   10.2970 C   0  0  0  0  0  2  0  0  0  0  0  0
   32.2790    3.4660    9.0850 C   0  0  0  0  0  3  0  0  0  0  0  0
   31.0060    3.7520    8.6240 C   0  0  0  0  0  2  0  0  0  0  0  0
   29.8900    3.3800    9.3620 C   0  0  0  0  0  2  0  0  0  0  0  0
   30.0390    2.7110   10.5670 C   0  0  0  0  0  2  0  0  0  0  0  0
   33.5010    3.8610    8.2570 C   0  0  0  0  0  3  0  0  0  0  0  0
   34.6740    2.9150    8.4780 C   0  0  0  0  0  1  0  0  0  0  0  0
   32.0240    8.3250   15.8650 C   0  0  0  0  0  3  0  0  0  0  0  0
   33.9370    5.2980    8.4830 C   0  0  0  0  0  1  0  0  0  0  0  0
   30.4530    6.0560   15.5800 N   0  0  0  0  0  2  0  0  0  0  0  0
   27.7130    6.8480   19.8020 N   0  0  0  0  0  2  0  0  0  0  0  0
   32.0590    2.5440   13.4370 N   0  0  0  0  0  2  0  0  0  0  0  0
   31.2060    9.9000   18.2730 O   0  0  0  0  0  0  0  0  0  0  0  0
   24.0340    4.2020   16.9430 O   0  0  0  0  0  0  0  0  0  0  0  0
   28.9310    6.4360   13.9680 O   0  0  0  0  0  1  0  0  0  0  0  0
   33.4500    4.9020   13.7410 O   0  0  0  0  0  1  0  0  0  0  0  0
  1  2  1  0
  1 30  1  0
  2 35  1  0
  3  4  1  0
  3 35  1  0
  4  5  1  0
  5  6  1  0
  6 33  1  0
  7 17  1  0
  7 19  1  0
  7 32  1  0
  8  9  1  0
  8 13  1  0
  8 33  1  0
  9 10  1  0
 10 11  1  0
 10 16  1  0
 11 12  1  0
 12 13  1  0
 12 14  1  0
 14 36  1  0
 15 36  1  0
 16 32  1  0
 16 37  1  0
 17 30  1  0
 18 30  1  0
 19 20  1  0
 19 38  1  0
 20 34  1  0
 21 22  1  0
 21 34  1  0
 22 23  1  0
 22 27  1  0
 23 24  1  0
 24 25  1  0
 24 28  1  0
 25 26  1  0
 26 27  1  0
 28 29  1  0
 28 31  1  0
M  END
$$$$
