5qd1_B_E61_401
     RDKit          3D

 38 40  0  0  0  0  0  0  0  0999 V2000
   15.2260    6.6250  -15.4580 C   0  0  0  0  0  2  0  0  0  0  0  0
   15.0030    5.2640  -14.7590 C   0  0  0  0  0  2  0  0  0  0  0  0
   17.1240    4.2440  -14.3250 C   0  0  0  0  0  2  0  0  0  0  0  0
   17.7450    2.8560  -14.4470 C   0  0  0  0  0  2  0  0  0  0  0  0
   18.1080    2.4840  -15.8770 C   0  0  0  0  0  2  0  0  0  0  0  0
   19.4380    3.1020  -16.3910 C   0  0  0  0  0  2  0  0  0  0  0  0
   16.3770    7.8700  -19.0120 C   0  0  0  0  0  3  0  0  0  0  0  0
   19.2010    2.9850  -18.9100 C   0  0  0  0  0  3  0  0  0  0  0  0
   18.3840    4.1160  -18.9530 C   0  0  0  0  0  2  0  0  0  0  0  0
   17.8000    4.5270  -20.1550 C   0  0  0  0  0  3  0  0  0  0  0  0
   18.0250    3.7870  -21.3150 C   0  0  0  0  0  2  0  0  0  0  0  0
   18.8330    2.6280  -21.2770 C   0  0  0  0  0  3  0  0  0  0  0  0
   19.4230    2.2570  -20.0750 C   0  0  0  0  0  2  0  0  0  0  0  0
   19.1160    1.8200  -22.5290 C   0  0  0  0  0  2  0  0  0  0  0  0
   21.0740    0.6530  -23.3310 C   0  0  0  0  0  1  0  0  0  0  0  0
   16.9280    5.7480  -20.1390 C   0  0  0  0  0  3  0  0  0  0  0  0
   15.8920    7.9540  -17.5560 C   0  0  0  0  0  2  0  0  0  0  0  0
   14.1360    6.1270  -17.7110 C   0  0  0  0  0  1  0  0  0  0  0  0
   17.1440    9.1350  -19.4270 C   0  0  0  0  0  3  0  0  0  0  0  0
   17.4060    9.1630  -20.9330 C   0  0  0  0  0  2  0  0  0  0  0  0
   17.8450   10.8330  -22.6750 C   0  0  0  0  0  2  0  0  0  0  0  0
   16.4570   10.8190  -23.3040 C   0  0  0  0  0  3  0  0  0  0  0  0
   15.4990   11.7740  -22.9560 C   0  0  0  0  0  2  0  0  0  0  0  0
   14.2320   11.7820  -23.5320 C   0  0  0  0  0  3  0  0  0  0  0  0
   13.9250   10.8200  -24.4880 C   0  0  0  0  0  2  0  0  0  0  0  0
   14.8620    9.8660  -24.8520 C   0  0  0  0  0  2  0  0  0  0  0  0
   16.1220    9.8660  -24.2660 C   0  0  0  0  0  2  0  0  0  0  0  0
   13.2080   12.8340  -23.1470 C   0  0  0  0  0  3  0  0  0  0  0  0
   13.8310   14.2260  -23.1180 C   0  0  0  0  0  1  0  0  0  0  0  0
   15.4110    6.5940  -17.0000 C   0  0  0  0  0  3  0  0  0  0  0  0
   12.5230   12.5320  -21.8190 C   0  0  0  0  0  1  0  0  0  0  0  0
   17.1780    6.6620  -19.1880 N   0  0  0  0  0  2  0  0  0  0  0  0
   19.8030    2.5830  -17.7280 N   0  0  0  0  0  2  0  0  0  0  0  0
   17.8550   10.5380  -21.2430 N   0  0  0  0  0  2  0  0  0  0  0  0
   15.9950    4.3270  -15.1770 O   0  0  0  0  0  0  0  0  0  0  0  0
   20.5320    1.8730  -22.8340 O   0  0  0  0  0  0  0  0  0  0  0  0
   16.0290    5.9020  -20.9600 O   0  0  0  0  0  1  0  0  0  0  0  0
   16.3870   10.3050  -19.0840 O   0  0  0  0  0  1  0  0  0  0  0  0
  1  2  1  0
  1 30  1  0
  2 35  1  0
  3  4  1  0
  3 35  1  0
  4  5  1  0
  5  6  1  0
  6 33  1  0
  7 17  1  0
  7 19  1  0
  7 32  1  0
  8  9  1  0
  8 13  1  0
  8 33  1  0
  9 10  1  0
 10 11  1  0
 10 16  1  0
 11 12  1  0
 12 13  1  0
 12 14  1  0
 14 36  1  0
 15 36  1  0
 16 32  1  0
 16 37  1  0
 17 30  1  0
 18 30  1  0
 19 20  1  0
 19 38  1  0
 20 34  1  0
 21 22  1  0
 21 34  1  0
 22 23  1  0
 22 27  1  0
 23 24  1  0
 24 25  1  0
 24 28  1  0
 25 26  1  0
 26 27  1  0
 28 29  1  0
 28 31  1  0
M  END
$$$$
