5qd1_C_E61_401
     RDKit          3D

 38 40  0  0  0  0  0  0  0  0999 V2000
    5.8610  -44.1230   48.0200 C   0  0  0  0  0  2  0  0  0  0  0  0
    4.5700  -43.5820   48.6140 C   0  0  0  0  0  2  0  0  0  0  0  0
    4.0880  -41.5890   47.3750 C   0  0  0  0  0  2  0  0  0  0  0  0
    3.4860  -40.2190   47.6640 C   0  0  0  0  0  2  0  0  0  0  0  0
    4.4360  -39.2610   48.3990 C   0  0  0  0  0  2  0  0  0  0  0  0
    5.4470  -38.5760   47.4330 C   0  0  0  0  0  2  0  0  0  0  0  0
    9.6170  -43.2030   48.4720 C   0  0  0  0  0  3  0  0  0  0  0  0
    7.3680  -37.9900   48.9340 C   0  0  0  0  0  3  0  0  0  0  0  0
    7.8560  -39.2990   48.9260 C   0  0  0  0  0  2  0  0  0  0  0  0
    8.9380  -39.6580   49.7380 C   0  0  0  0  0  3  0  0  0  0  0  0
    9.5200  -38.7050   50.5780 C   0  0  0  0  0  2  0  0  0  0  0  0
    9.0280  -37.3900   50.6060 C   0  0  0  0  0  3  0  0  0  0  0  0
    7.9540  -37.0470   49.7780 C   0  0  0  0  0  2  0  0  0  0  0  0
    9.6530  -36.3490   51.4970 C   0  0  0  0  0  2  0  0  0  0  0  0
   10.0910  -34.0670   50.9270 C   0  0  0  0  0  1  0  0  0  0  0  0
    9.4400  -41.0720   49.7160 C   0  0  0  0  0  3  0  0  0  0  0  0
    8.4070  -44.0410   48.0480 C   0  0  0  0  0  2  0  0  0  0  0  0
    7.1050  -43.7650   50.1900 C   0  0  0  0  0  1  0  0  0  0  0  0
   10.8260  -43.3980   47.5320 C   0  0  0  0  0  3  0  0  0  0  0  0
   12.1010  -42.8890   48.1980 C   0  0  0  0  0  2  0  0  0  0  0  0
   14.5310  -43.0260   47.9240 C   0  0  0  0  0  2  0  0  0  0  0  0
   14.7280  -43.8210   49.2020 C   0  0  0  0  0  3  0  0  0  0  0  0
   14.7290  -45.2170   49.1800 C   0  0  0  0  0  2  0  0  0  0  0  0
   14.9140  -45.9700   50.3370 C   0  0  0  0  0  3  0  0  0  0  0  0
   15.1090  -45.2990   51.5420 C   0  0  0  0  0  2  0  0  0  0  0  0
   15.1110  -43.9110   51.5870 C   0  0  0  0  0  2  0  0  0  0  0  0
   14.9210  -43.1750   50.4260 C   0  0  0  0  0  2  0  0  0  0  0  0
   14.9330  -47.5040   50.2820 C   0  0  0  0  0  3  0  0  0  0  0  0
   15.8030  -48.0210   49.1430 C   0  0  0  0  0  1  0  0  0  0  0  0
    7.1100  -43.5270   48.6820 C   0  0  0  0  0  3  0  0  0  0  0  0
   13.5450  -48.1300   50.1960 C   0  0  0  0  0  1  0  0  0  0  0  0
    9.2230  -41.7920   48.5950 N   0  0  0  0  0  2  0  0  0  0  0  0
    6.3110  -37.6220   48.1160 N   0  0  0  0  0  2  0  0  0  0  0  0
   13.2180  -43.2130   47.2950 N   0  0  0  0  0  2  0  0  0  0  0  0
    4.6020  -42.1580   48.5820 O   0  0  0  0  0  0  0  0  0  0  0  0
   10.4350  -35.4400   50.7240 O   0  0  0  0  0  0  0  0  0  0  0  0
   10.0230  -41.5480   50.6860 O   0  0  0  0  0  1  0  0  0  0  0  0
   11.0060  -44.7930   47.2310 O   0  0  0  0  0  1  0  0  0  0  0  0
  1  2  1  0
  1 30  1  0
  2 35  1  0
  3  4  1  0
  3 35  1  0
  4  5  1  0
  5  6  1  0
  6 33  1  0
  7 17  1  0
  7 19  1  0
  7 32  1  0
  8  9  1  0
  8 13  1  0
  8 33  1  0
  9 10  1  0
 10 11  1  0
 10 16  1  0
 11 12  1  0
 12 13  1  0
 12 14  1  0
 14 36  1  0
 15 36  1  0
 16 32  1  0
 16 37  1  0
 17 30  1  0
 18 30  1  0
 19 20  1  0
 19 38  1  0
 20 34  1  0
 21 22  1  0
 21 34  1  0
 22 23  1  0
 22 27  1  0
 23 24  1  0
 24 25  1  0
 24 28  1  0
 25 26  1  0
 26 27  1  0
 28 29  1  0
 28 31  1  0
M  END
$$$$
