5qd2_B_E6J_401
     RDKit          3D

 40 43  0  0  0  0  0  0  0  0999 V2000
   15.6110    4.3960  -15.5160 C   0  0  0  0  0  3  0  0  0  0  0  0
   14.4190    3.8420  -15.9480 C   0  0  0  0  0  2  0  0  0  0  0  0
   13.6410    4.5420  -16.8520 C   0  0  0  0  0  2  0  0  0  0  0  0
   14.0440    5.7810  -17.3210 C   0  0  0  0  0  2  0  0  0  0  0  0
   17.5890    4.0330  -14.1860 C   0  0  0  0  0  2  0  0  0  0  0  0
   18.5500    2.8950  -14.3970 C   0  0  0  0  0  2  0  0  0  0  0  0
   19.0800    2.7950  -15.8060 C   0  0  0  0  0  2  0  0  0  0  0  0
   18.1570    1.9720  -16.6520 C   0  0  0  0  0  2  0  0  0  0  0  0
   16.1060    7.6030  -18.8890 C   0  0  0  0  0  3  0  0  0  0  0  0
   18.5050    2.4370  -18.9620 C   0  0  0  0  0  3  0  0  0  0  0  0
   17.7650    3.6120  -18.9360 C   0  0  0  0  0  2  0  0  0  0  0  0
   17.5190    4.2870  -20.1290 C   0  0  0  0  0  3  0  0  0  0  0  0
   18.0080    3.7690  -21.3280 C   0  0  0  0  0  2  0  0  0  0  0  0
   18.7520    2.5810  -21.3450 C   0  0  0  0  0  3  0  0  0  0  0  0
   19.0070    1.9260  -20.1490 C   0  0  0  0  0  2  0  0  0  0  0  0
   19.2960    2.0310  -22.6380 C   0  0  0  0  0  2  0  0  0  0  0  0
   21.1060    0.8850  -23.6070 C   0  0  0  0  0  1  0  0  0  0  0  0
   16.7060    5.5530  -20.1230 C   0  0  0  0  0  3  0  0  0  0  0  0
   15.6760    7.7020  -17.4260 C   0  0  0  0  0  2  0  0  0  0  0  0
   16.8900    8.8540  -19.3370 C   0  0  0  0  0  3  0  0  0  0  0  0
   17.0970    8.8750  -20.8550 C   0  0  0  0  0  2  0  0  0  0  0  0
   17.6690   10.4880  -22.6180 C   0  0  0  0  0  2  0  0  0  0  0  0
   16.2920   10.5350  -23.2550 C   0  0  0  0  0  3  0  0  0  0  0  0
   15.3370   11.4580  -22.8330 C   0  0  0  0  0  2  0  0  0  0  0  0
   14.0680   11.4980  -23.3940 C   0  0  0  0  0  3  0  0  0  0  0  0
   13.7550   10.6000  -24.3980 C   0  0  0  0  0  2  0  0  0  0  0  0
   14.6860    9.6730  -24.8220 C   0  0  0  0  0  2  0  0  0  0  0  0
   15.9470    9.6430  -24.2530 C   0  0  0  0  0  2  0  0  0  0  0  0
   13.0500   12.5280  -22.9530 C   0  0  0  0  0  3  0  0  0  0  0  0
   12.4810   12.2380  -21.5680 C   0  0  0  0  0  1  0  0  0  0  0  0
   13.6360   13.9270  -23.0210 C   0  0  0  0  0  1  0  0  0  0  0  0
   15.2350    6.3540  -16.8900 C   0  0  0  0  0  3  0  0  0  0  0  0
   16.0290    5.6440  -15.9820 C   0  0  0  0  0  2  0  0  0  0  0  0
   16.8660    6.3660  -19.0710 N   0  0  0  0  0  2  0  0  0  0  0  0
   17.6110   10.2210  -21.1720 N   0  0  0  0  0  2  0  0  0  0  0  0
   16.2850    3.6010  -14.6130 O   0  0  0  0  0  0  0  0  0  0  0  0
   18.8180    1.6900  -17.8640 O   0  0  0  0  0  0  0  0  0  0  0  0
   20.6070    1.5280  -22.4500 O   0  0  0  0  0  0  0  0  0  0  0  0
   15.9540    5.8290  -21.0550 O   0  0  0  0  0  1  0  0  0  0  0  0
   16.1590   10.0320  -18.9950 O   0  0  0  0  0  1  0  0  0  0  0  0
  1  2  1  0
  1 33  1  0
  1 36  1  0
  2  3  1  0
  3  4  1  0
  4 32  1  0
  5  6  1  0
  5 36  1  0
  6  7  1  0
  7  8  1  0
  8 37  1  0
  9 19  1  0
  9 20  1  0
  9 34  1  0
 10 11  1  0
 10 15  1  0
 10 37  1  0
 11 12  1  0
 12 13  1  0
 12 18  1  0
 13 14  1  0
 14 15  1  0
 14 16  1  0
 16 38  1  0
 17 38  1  0
 18 34  1  0
 18 39  1  0
 19 32  1  0
 20 21  1  0
 20 40  1  0
 21 35  1  0
 22 23  1  0
 22 35  1  0
 23 24  1  0
 23 28  1  0
 24 25  1  0
 25 26  1  0
 25 29  1  0
 26 27  1  0
 27 28  1  0
 29 30  1  0
 29 31  1  0
 32 33  1  0
M  END
$$$$
