5qd3_C_E6M_401
     RDKit          3D

 38 40  0  0  0  0  0  0  0  0999 V2000
    5.7130  -43.9580   48.2890 C   0  0  0  0  0  2  0  0  0  0  0  0
    4.4440  -43.4760   48.9630 C   0  0  0  0  0  2  0  0  0  0  0  0
    4.3280  -41.9240   49.0560 C   0  0  0  0  0  2  0  0  0  0  0  0
    4.2370  -41.2060   47.6970 C   0  0  0  0  0  2  0  0  0  0  0  0
    3.5070  -39.8380   47.7550 C   0  0  0  0  0  2  0  0  0  0  0  0
    4.3380  -38.7070   48.3960 C   0  0  0  0  0  2  0  0  0  0  0  0
    5.6100  -38.3690   47.5990 C   0  0  0  0  0  2  0  0  0  0  0  0
    9.5090  -43.1730   48.6500 C   0  0  0  0  0  3  0  0  0  0  0  0
    7.4720  -37.8980   49.2130 C   0  0  0  0  0  3  0  0  0  0  0  0
    7.9340  -39.2200   49.1710 C   0  0  0  0  0  2  0  0  0  0  0  0
    8.9530  -39.6430   50.0320 C   0  0  0  0  0  3  0  0  0  0  0  0
    9.4870  -38.7470   50.9670 C   0  0  0  0  0  2  0  0  0  0  0  0
    9.0330  -37.4080   51.0110 C   0  0  0  0  0  3  0  0  0  0  0  0
    8.0240  -37.0060   50.1310 C   0  0  0  0  0  2  0  0  0  0  0  0
    9.5990  -36.4170   52.0190 C   0  0  0  0  0  2  0  0  0  0  0  0
   10.4090  -34.4980   50.8680 C   0  0  0  0  0  1  0  0  0  0  0  0
    8.2630  -43.9360   48.2020 C   0  0  0  0  0  2  0  0  0  0  0  0
    9.4060  -41.0800   49.9730 C   0  0  0  0  0  3  0  0  0  0  0  0
    7.0630  -43.9250   50.4180 C   0  0  0  0  0  1  0  0  0  0  0  0
   10.7350  -43.3800   47.7200 C   0  0  0  0  0  3  0  0  0  0  0  0
   12.0100  -42.7830   48.3090 C   0  0  0  0  0  2  0  0  0  0  0  0
   14.4400  -43.0030   48.1290 C   0  0  0  0  0  2  0  0  0  0  0  0
   14.6730  -43.8380   49.3800 C   0  0  0  0  0  3  0  0  0  0  0  0
   14.6920  -45.2340   49.3220 C   0  0  0  0  0  2  0  0  0  0  0  0
   14.9120  -46.0100   50.4590 C   0  0  0  0  0  3  0  0  0  0  0  0
   15.1210  -45.3630   51.6750 C   0  0  0  0  0  2  0  0  0  0  0  0
   15.1030  -43.9790   51.7530 C   0  0  0  0  0  2  0  0  0  0  0  0
   14.8880  -43.2210   50.6160 C   0  0  0  0  0  2  0  0  0  0  0  0
   14.9380  -47.5370   50.3870 C   0  0  0  0  0  3  0  0  0  0  0  0
    7.0060  -43.4920   48.9560 C   0  0  0  0  0  3  0  0  0  0  0  0
   13.5460  -48.1460   50.3490 C   0  0  0  0  0  1  0  0  0  0  0  0
   15.7410  -48.0450   49.2220 C   0  0  0  0  0  1  0  0  0  0  0  0
    9.1740  -41.7540   48.8260 N   0  0  0  0  0  2  0  0  0  0  0  0
    6.4930  -37.4640   48.3330 N   0  0  0  0  0  2  0  0  0  0  0  0
   13.1380  -43.2310   47.4800 N   0  0  0  0  0  2  0  0  0  0  0  0
   10.7350  -35.7510   51.5260 O   0  0  0  0  0  0  0  0  0  0  0  0
    9.9320  -41.6160   50.9440 O   0  0  0  0  0  1  0  0  0  0  0  0
   10.9860  -44.7790   47.4840 O   0  0  0  0  0  1  0  0  0  0  0  0
  1  2  1  0
  1 30  1  0
  2  3  1  0
  3  4  1  0
  4  5  1  0
  5  6  1  0
  6  7  1  0
  7 34  1  0
  8 17  1  0
  8 20  1  0
  8 33  1  0
  9 10  1  0
  9 14  1  0
  9 34  1  0
 10 11  1  0
 11 12  1  0
 11 18  1  0
 12 13  1  0
 13 14  1  0
 13 15  1  0
 15 36  1  0
 16 36  1  0
 17 30  1  0
 18 33  1  0
 18 37  1  0
 19 30  1  0
 20 21  1  0
 20 38  1  0
 21 35  1  0
 22 23  1  0
 22 35  1  0
 23 24  1  0
 23 28  1  0
 24 25  1  0
 25 26  1  0
 25 29  1  0
 26 27  1  0
 27 28  1  0
 29 31  1  0
 29 32  1  0
M  END
$$$$
