5qd4_C_AXQ_401
     RDKit          3D

 45 45  0  0  0  0  0  0  0  0999 V2000
    9.6560  -38.7040   50.2980 C   0  0  0  0  0  3  0  0  0  0  0  0
    7.7870  -37.3000   49.6040 C   0  0  0  0  0  3  0  0  0  0  0  0
    6.2730  -37.1290   49.5330 C   0  0  0  0  0  3  0  0  0  0  0  0
    5.7910  -37.8770   48.2890 C   0  0  0  0  0  2  0  0  0  0  0  0
    8.6460  -43.2370   49.1680 C   0  0  0  0  0  2  0  0  0  0  0  0
    4.4790  -40.1870   47.4150 C   0  0  0  0  0  2  0  0  0  0  0  0
    4.6410  -41.4420   48.1650 C   0  0  0  0  0  2  0  0  0  0  0  0
    5.7130  -41.7760   48.8550 C   0  0  0  0  0  2  0  0  0  0  0  0
    5.8690  -43.0440   49.6120 C   0  0  0  0  0  2  0  0  0  0  0  0
    6.0840  -34.9150   50.5390 C   0  0  0  0  0  3  0  0  0  0  0  0
    5.8780  -32.5090   51.1300 C   0  0  0  0  0  0  0  0  0  0  0  0
    5.2430  -31.3540   50.3920 C   0  0  0  0  0  1  0  0  0  0  0  0
    5.2330  -32.7060   52.4860 C   0  0  0  0  0  1  0  0  0  0  0  0
    7.3760  -32.3170   51.2500 C   0  0  0  0  0  1  0  0  0  0  0  0
    9.9280  -42.4790   49.5600 C   0  0  0  0  0  3  0  0  0  0  0  0
   10.2910  -37.8720   51.4030 C   0  0  0  0  0  1  0  0  0  0  0  0
   11.1330  -42.9380   48.7160 C   0  0  0  0  0  3  0  0  0  0  0  0
   12.4110  -42.2280   49.1250 C   0  0  0  0  0  2  0  0  0  0  0  0
   13.6440  -43.0980   48.9450 C   0  0  0  0  0  3  0  0  0  0  0  0
   14.8990  -42.2430   48.6710 C   0  0  0  0  0  1  0  0  0  0  0  0
   13.9030  -43.9540   50.1720 C   0  0  0  0  0  3  0  0  0  0  0  0
   14.5930  -46.0920   51.0470 C   0  0  0  0  0  3  0  0  0  0  0  0
   14.8490  -47.5360   50.5800 C   0  0  0  0  0  3  0  0  0  0  0  0
   16.0770  -47.6330   49.6820 C   0  0  0  0  0  1  0  0  0  0  0  0
   14.9860  -48.4870   51.7680 C   0  0  0  0  0  1  0  0  0  0  0  0
   15.8240  -45.4840   51.7650 C   0  0  0  0  0  3  0  0  0  0  0  0
   16.9730  -45.0460   53.8940 C   0  0  0  0  0  2  0  0  0  0  0  0
    9.9090  -40.2000   50.5410 C   0  0  0  0  0  3  0  0  0  0  0  0
   16.5330  -44.6580   55.2880 C   0  0  0  0  0  2  0  0  0  0  0  0
   15.8670  -43.2960   55.3550 C   0  0  0  0  0  2  0  0  0  0  0  0
   15.6240  -42.8070   56.7710 C   0  0  0  0  0  1  0  0  0  0  0  0
    8.2340  -38.4160   50.1930 N   0  0  0  0  0  2  0  0  0  0  0  0
    5.8910  -35.7230   49.4860 N   0  0  0  0  0  2  0  0  0  0  0  0
    9.7330  -41.0130   49.4820 N   0  0  0  0  0  2  0  0  0  0  0  0
   14.2800  -45.2140   49.9430 N   0  0  0  0  0  2  0  0  0  0  0  0
   15.8650  -45.5960   53.0960 N   0  0  0  0  0  2  0  0  0  0  0  0
    6.6290  -35.2480   51.5690 O   0  0  0  0  0  1  0  0  0  0  0  0
    5.5770  -33.6920   50.2670 O   0  0  0  0  0  0  0  0  0  0  0  0
    8.5290  -36.4510   49.1180 O   0  0  0  0  0  1  0  0  0  0  0  0
   10.2490  -40.6070   51.6500 O   0  0  0  0  0  1  0  0  0  0  0  0
   10.9260  -42.6990   47.3240 O   0  0  0  0  0  1  0  0  0  0  0  0
   13.7490  -43.4960   51.3060 O   0  0  0  0  0  1  0  0  0  0  0  0
   16.6920  -44.8840   51.1220 O   0  0  0  0  0  1  0  0  0  0  0  0
    7.4360  -43.1780   50.5170 S   0  0  0  0  0  0  0  0  0  0  0  0
    4.2240  -38.7540   48.4960 S   0  0  0  0  0  0  0  0  0  0  0  0
  1 16  1  0
  1 28  1  0
  1 32  1  0
  2  3  1  0
  2 32  1  0
  2 39  1  0
  3  4  1  0
  3 33  1  0
  4 45  1  0
  5 15  1  0
  5 44  1  0
  6  7  1  0
  6 45  1  0
  7  8  1  0
  8  9  1  0
  9 44  1  0
 10 33  1  0
 10 37  1  0
 10 38  1  0
 11 12  1  0
 11 13  1  0
 11 14  1  0
 11 38  1  0
 15 17  1  0
 15 34  1  0
 17 18  1  0
 17 41  1  0
 18 19  1  0
 19 20  1  0
 19 21  1  0
 21 35  1  0
 21 42  1  0
 22 23  1  0
 22 26  1  0
 22 35  1  0
 23 24  1  0
 23 25  1  0
 26 36  1  0
 26 43  1  0
 27 29  1  0
 27 36  1  0
 28 34  1  0
 28 40  1  0
 29 30  1  0
 30 31  1  0
M  END
$$$$
