5qd5_B_E6P_401
     RDKit          3D

 36 38  0  0  0  0  0  0  0  0999 V2000
   16.6600    5.7470  -19.9950 C   0  0  0  0  0  3  0  0  0  0  0  0
   16.0590    7.7950  -18.7810 C   0  0  0  0  0  3  0  0  0  0  0  0
   15.5950    7.8040  -17.3310 C   0  0  0  0  0  2  0  0  0  0  0  0
   15.2190    6.3870  -16.8500 C   0  0  0  0  0  3  0  0  0  0  0  0
   18.8360    2.9530  -21.2230 C   0  0  0  0  0  3  0  0  0  0  0  0
   15.1410    6.3070  -15.2930 C   0  0  0  0  0  2  0  0  0  0  0  0
   14.8470    4.9100  -14.7650 C   0  0  0  0  0  2  0  0  0  0  0  0
   16.9540    3.9130  -14.3200 C   0  0  0  0  0  2  0  0  0  0  0  0
   17.5680    2.5440  -14.4580 C   0  0  0  0  0  2  0  0  0  0  0  0
   17.9280    2.1880  -15.8890 C   0  0  0  0  0  2  0  0  0  0  0  0
   19.2290    2.8920  -16.4490 C   0  0  0  0  0  2  0  0  0  0  0  0
   18.9730    2.9630  -18.9520 C   0  0  0  0  0  3  0  0  0  0  0  0
   13.9110    5.9180  -17.5080 C   0  0  0  0  0  1  0  0  0  0  0  0
   16.7880    9.0830  -19.1890 C   0  0  0  0  0  3  0  0  0  0  0  0
   17.0130    9.0980  -20.7030 C   0  0  0  0  0  2  0  0  0  0  0  0
   18.0940    4.0450  -18.8690 C   0  0  0  0  0  2  0  0  0  0  0  0
   17.6080   10.6510  -22.5120 C   0  0  0  0  0  2  0  0  0  0  0  0
   16.2170   10.7040  -23.1100 C   0  0  0  0  0  3  0  0  0  0  0  0
   15.2590   11.5990  -22.6280 C   0  0  0  0  0  2  0  0  0  0  0  0
   13.9830   11.6660  -23.1750 C   0  0  0  0  0  3  0  0  0  0  0  0
   13.6660   10.8250  -24.2300 C   0  0  0  0  0  2  0  0  0  0  0  0
   14.6020    9.9340  -24.7210 C   0  0  0  0  0  2  0  0  0  0  0  0
   15.8700    9.8730  -24.1620 C   0  0  0  0  0  2  0  0  0  0  0  0
   12.9700   12.6680  -22.6590 C   0  0  0  0  0  3  0  0  0  0  0  0
   12.2340   12.1770  -21.4500 C   0  0  0  0  0  1  0  0  0  0  0  0
   17.5880    4.5760  -20.0540 C   0  0  0  0  0  3  0  0  0  0  0  0
   13.6460   13.9980  -22.3490 C   0  0  0  0  0  1  0  0  0  0  0  0
   17.9670    4.0240  -21.2670 C   0  0  0  0  0  2  0  0  0  0  0  0
   19.3480    2.2270  -22.7240 Cl  0  0  0  0  0  0  0  0  0  0  0  0
   16.8880    6.6230  -19.0050 N   0  0  0  0  0  2  0  0  0  0  0  0
   19.3520    2.4190  -20.1210 N   0  0  0  0  0  2  0  0  0  0  0  0
   19.5130    2.4190  -17.8230 N   0  0  0  0  0  2  0  0  0  0  0  0
   17.6300   10.3900  -21.0730 N   0  0  0  0  0  2  0  0  0  0  0  0
   15.8620    4.0140  -15.1990 O   0  0  0  0  0  0  0  0  0  0  0  0
   16.0230   10.2370  -18.8240 O   0  0  0  0  0  1  0  0  0  0  0  0
   15.7620    5.8960  -20.8190 O   0  0  0  0  0  1  0  0  0  0  0  0
  1 26  1  0
  1 30  1  0
  1 36  1  0
  2  3  1  0
  2 14  1  0
  2 30  1  0
  3  4  1  0
  4  6  1  0
  4 13  1  0
  5 28  1  0
  5 29  1  0
  5 31  1  0
  6  7  1  0
  7 34  1  0
  8  9  1  0
  8 34  1  0
  9 10  1  0
 10 11  1  0
 11 32  1  0
 12 16  1  0
 12 31  1  0
 12 32  1  0
 14 15  1  0
 14 35  1  0
 15 33  1  0
 16 26  1  0
 17 18  1  0
 17 33  1  0
 18 19  1  0
 18 23  1  0
 19 20  1  0
 20 21  1  0
 20 24  1  0
 21 22  1  0
 22 23  1  0
 24 25  1  0
 24 27  1  0
 26 28  1  0
M  END
$$$$
