5qd6_A_E6S_401
     RDKit          3D

 36 37  0  0  0  0  0  0  0  0999 V2000
   31.2830    8.2770   15.7680 C   0  0  0  0  0  3  0  0  0  0  0  0
   32.3630    9.1030   16.4760 C   0  0  0  0  0  2  0  0  0  0  0  0
   31.8560   10.2920   17.3000 C   0  0  0  0  0  2  0  0  0  0  0  0
   27.3160    5.5870   16.1530 C   0  0  0  0  0  3  0  0  0  0  0  0
   30.7920    9.9460   18.3170 C   0  0  0  0  0  2  0  0  0  0  0  0
   31.3450    9.3620   19.6410 C   0  0  0  0  0  2  0  0  0  0  0  0
   30.3370    9.3920   20.8070 C   0  0  0  0  0  2  0  0  0  0  0  0
   28.8990    9.2360   20.3640 C   0  0  0  0  0  2  0  0  0  0  0  0
   28.5490    7.7990   19.9740 C   0  0  0  0  0  2  0  0  0  0  0  0
   27.1220    7.6210   19.3700 C   0  0  0  0  0  2  0  0  0  0  0  0
   27.0930    6.4670   18.4040 C   0  0  0  0  0  3  0  0  0  0  0  0
   28.3940    5.7660   15.0770 C   0  0  0  0  0  3  0  0  0  0  0  0
   30.6700    9.0430   14.5780 C   0  0  0  0  0  1  0  0  0  0  0  0
   31.4970    4.5760   14.3880 C   0  0  0  0  0  0  0  0  0  0  0  0
   30.7070    3.7240   13.3340 C   0  0  0  0  0  2  0  0  0  0  0  0
   31.0150    1.6530   11.9780 C   0  0  0  0  0  2  0  0  0  0  0  0
   30.9820    2.3620   10.6430 C   0  0  0  0  0  3  0  0  0  0  0  0
   32.1540    2.8400   10.0420 C   0  0  0  0  0  2  0  0  0  0  0  0
   32.1250    3.5110    8.8190 C   0  0  0  0  0  3  0  0  0  0  0  0
   30.9040    3.7040    8.1970 C   0  0  0  0  0  2  0  0  0  0  0  0
   29.7370    3.2410    8.7790 C   0  0  0  0  0  2  0  0  0  0  0  0
   29.7750    2.5780    9.9960 C   0  0  0  0  0  2  0  0  0  0  0  0
   33.3970    4.0160    8.1460 C   0  0  0  0  0  3  0  0  0  0  0  0
   34.5120    2.9880    8.1850 C   0  0  0  0  0  1  0  0  0  0  0  0
   30.8290    5.9870   14.6610 C   0  0  0  0  0  3  0  0  0  0  0  0
   33.8660    5.3020    8.7460 C   0  0  0  0  0  1  0  0  0  0  0  0
   25.9410    5.3420   15.5400 C   0  0  0  0  0  1  0  0  0  0  0  0
   27.5150    8.0670   16.5510 C   0  0  0  0  0  1  0  0  0  0  0  0
   31.8330    6.9080   15.3420 C   0  0  0  0  0  2  0  0  0  0  0  0
   27.3120    6.7180   17.0940 N   0  0  0  0  0  0  0  0  0  0  0  0
   29.6600    5.8160   15.5200 N   0  0  0  0  0  2  0  0  0  0  0  0
   31.5140    2.5090   13.0630 N   0  0  0  0  0  2  0  0  0  0  0  0
   26.9360    5.3300   18.8200 O   0  0  0  0  0  1  0  0  0  0  0  0
   31.6300    3.8130   15.5530 O   0  0  0  0  0  1  0  0  0  0  0  0
   32.8100    4.7550   13.9200 O   0  0  0  0  0  1  0  0  0  0  0  0
   28.0970    5.8470   13.8880 O   0  0  0  0  0  1  0  0  0  0  0  0
  1  2  1  0
  1 13  1  0
  1 29  1  0
  2  3  1  0
  3  5  1  0
  4 12  1  0
  4 27  1  0
  4 30  1  0
  5  6  1  0
  6  7  1  0
  7  8  1  0
  8  9  1  0
  9 10  1  0
 10 11  1  0
 11 30  1  0
 11 33  1  0
 12 31  1  0
 12 36  1  0
 14 15  1  0
 14 25  1  0
 14 34  1  0
 14 35  1  0
 15 32  1  0
 16 17  1  0
 16 32  1  0
 17 18  1  0
 17 22  1  0
 18 19  1  0
 19 20  1  0
 19 23  1  0
 20 21  1  0
 21 22  1  0
 23 24  1  0
 23 26  1  0
 25 29  1  0
 25 31  1  0
 28 30  1  0
M  END
$$$$
