5qd6_B_E6S_401
     RDKit          3D

 36 37  0  0  0  0  0  0  0  0999 V2000
   14.6840    5.9070  -16.5730 C   0  0  0  0  0  3  0  0  0  0  0  0
   14.2920    6.0520  -15.0800 C   0  0  0  0  0  2  0  0  0  0  0  0
   13.9660    4.7330  -14.3590 C   0  0  0  0  0  2  0  0  0  0  0  0
   17.3610    4.0520  -20.0750 C   0  0  0  0  0  3  0  0  0  0  0  0
   15.0340    3.6550  -14.5180 C   0  0  0  0  0  2  0  0  0  0  0  0
   16.2140    3.8160  -13.5610 C   0  0  0  0  0  2  0  0  0  0  0  0
   17.2500    2.7000  -13.5860 C   0  0  0  0  0  2  0  0  0  0  0  0
   17.2910    1.8900  -14.8420 C   0  0  0  0  0  2  0  0  0  0  0  0
   18.2950    2.3660  -15.8640 C   0  0  0  0  0  2  0  0  0  0  0  0
   18.1600    1.6450  -17.2230 C   0  0  0  0  0  2  0  0  0  0  0  0
   18.3230    2.6010  -18.3690 C   0  0  0  0  0  3  0  0  0  0  0  0
   16.3320    5.1990  -19.9770 C   0  0  0  0  0  3  0  0  0  0  0  0
   13.5000    5.4470  -17.4290 C   0  0  0  0  0  1  0  0  0  0  0  0
   16.3350    8.5080  -19.0850 C   0  0  0  0  0  0  0  0  0  0  0  0
   16.5580    8.5980  -20.6210 C   0  0  0  0  0  2  0  0  0  0  0  0
   16.7850   10.4230  -22.2900 C   0  0  0  0  0  2  0  0  0  0  0  0
   15.3740   10.4500  -22.8430 C   0  0  0  0  0  3  0  0  0  0  0  0
   14.4040   11.3100  -22.3190 C   0  0  0  0  0  2  0  0  0  0  0  0
   13.1070   11.3440  -22.8330 C   0  0  0  0  0  3  0  0  0  0  0  0
   12.7860   10.4950  -23.8810 C   0  0  0  0  0  2  0  0  0  0  0  0
   13.7330    9.6340  -24.4070 C   0  0  0  0  0  2  0  0  0  0  0  0
   15.0190    9.6150  -23.8960 C   0  0  0  0  0  2  0  0  0  0  0  0
   12.0500   12.2970  -22.2820 C   0  0  0  0  0  3  0  0  0  0  0  0
   12.4840   13.7430  -22.3940 C   0  0  0  0  0  1  0  0  0  0  0  0
   15.6100    7.1510  -18.6250 C   0  0  0  0  0  3  0  0  0  0  0  0
   11.6660   11.9730  -20.8670 C   0  0  0  0  0  1  0  0  0  0  0  0
   17.3620    3.3760  -21.4350 C   0  0  0  0  0  1  0  0  0  0  0  0
   15.8460    2.7400  -18.5820 C   0  0  0  0  0  1  0  0  0  0  0  0
   15.2900    7.1920  -17.1380 C   0  0  0  0  0  2  0  0  0  0  0  0
   17.2050    3.0950  -18.9730 N   0  0  0  0  0  0  0  0  0  0  0  0
   16.4670    6.0040  -18.9050 N   0  0  0  0  0  2  0  0  0  0  0  0
   16.8710   10.0150  -20.8840 N   0  0  0  0  0  2  0  0  0  0  0  0
   19.4470    2.9280  -18.7230 O   0  0  0  0  0  1  0  0  0  0  0  0
   17.5790    8.7090  -18.4880 O   0  0  0  0  0  1  0  0  0  0  0  0
   15.5850    9.6380  -18.7150 O   0  0  0  0  0  1  0  0  0  0  0  0
   15.4690    5.3630  -20.8370 O   0  0  0  0  0  1  0  0  0  0  0  0
  1  2  1  0
  1 13  1  0
  1 29  1  0
  2  3  1  0
  3  5  1  0
  4 12  1  0
  4 27  1  0
  4 30  1  0
  5  6  1  0
  6  7  1  0
  7  8  1  0
  8  9  1  0
  9 10  1  0
 10 11  1  0
 11 30  1  0
 11 33  1  0
 12 31  1  0
 12 36  1  0
 14 15  1  0
 14 25  1  0
 14 34  1  0
 14 35  1  0
 15 32  1  0
 16 17  1  0
 16 32  1  0
 17 18  1  0
 17 22  1  0
 18 19  1  0
 19 20  1  0
 19 23  1  0
 20 21  1  0
 21 22  1  0
 23 24  1  0
 23 26  1  0
 25 29  1  0
 25 31  1  0
 28 30  1  0
M  END
$$$$
