5qd6_C_E6S_401
     RDKit          3D

 36 37  0  0  0  0  0  0  0  0999 V2000
    7.1700  -42.9080   48.2510 C   0  0  0  0  0  3  0  0  0  0  0  0
    5.9530  -43.6840   47.7160 C   0  0  0  0  0  2  0  0  0  0  0  0
    4.6000  -43.2660   48.2960 C   0  0  0  0  0  2  0  0  0  0  0  0
    9.4210  -38.8700   49.0620 C   0  0  0  0  0  3  0  0  0  0  0  0
    4.2660  -41.7770   48.1250 C   0  0  0  0  0  2  0  0  0  0  0  0
    3.9980  -41.3840   46.6710 C   0  0  0  0  0  2  0  0  0  0  0  0
    3.4270  -39.9680   46.4750 C   0  0  0  0  0  2  0  0  0  0  0  0
    3.9340  -38.9660   47.4670 C   0  0  0  0  0  2  0  0  0  0  0  0
    5.2540  -38.3590   47.0960 C   0  0  0  0  0  2  0  0  0  0  0  0
    5.9020  -37.6270   48.2380 C   0  0  0  0  0  2  0  0  0  0  0  0
    7.3970  -37.7990   48.2290 C   0  0  0  0  0  3  0  0  0  0  0  0
    9.7860  -40.3530   49.1870 C   0  0  0  0  0  3  0  0  0  0  0  0
    7.3380  -43.0720   49.7670 C   0  0  0  0  0  1  0  0  0  0  0  0
   10.9410  -42.7650   47.0470 C   0  0  0  0  0  0  0  0  0  0  0  0
   12.2860  -42.3230   47.7030 C   0  0  0  0  0  2  0  0  0  0  0  0
   14.7120  -42.7850   47.5460 C   0  0  0  0  0  2  0  0  0  0  0  0
   14.8600  -43.6460   48.7780 C   0  0  0  0  0  3  0  0  0  0  0  0
   14.8350  -45.0410   48.6770 C   0  0  0  0  0  2  0  0  0  0  0  0
   14.9820  -45.8600   49.7960 C   0  0  0  0  0  3  0  0  0  0  0  0
   15.1340  -45.2610   51.0380 C   0  0  0  0  0  2  0  0  0  0  0  0
   15.1390  -43.8780   51.1590 C   0  0  0  0  0  2  0  0  0  0  0  0
   15.0030  -43.0760   50.0370 C   0  0  0  0  0  2  0  0  0  0  0  0
   14.9670  -47.3890   49.6570 C   0  0  0  0  0  3  0  0  0  0  0  0
   15.7800  -47.8440   48.4540 C   0  0  0  0  0  1  0  0  0  0  0  0
    9.7070  -42.5590   48.0440 C   0  0  0  0  0  3  0  0  0  0  0  0
   13.5490  -47.9220   49.5300 C   0  0  0  0  0  1  0  0  0  0  0  0
   10.1520  -38.0060   50.0900 C   0  0  0  0  0  1  0  0  0  0  0  0
    7.2000  -39.4680   50.0570 C   0  0  0  0  0  1  0  0  0  0  0  0
    8.4590  -43.2770   47.5210 C   0  0  0  0  0  2  0  0  0  0  0  0
    7.9620  -38.6800   49.0930 N   0  0  0  0  0  0  0  0  0  0  0  0
    9.4450  -41.1210   48.1400 N   0  0  0  0  0  2  0  0  0  0  0  0
   13.3860  -42.9170   46.9280 N   0  0  0  0  0  2  0  0  0  0  0  0
    8.0690  -37.1620   47.4320 O   0  0  0  0  0  1  0  0  0  0  0  0
   10.8040  -42.0520   45.8490 O   0  0  0  0  0  1  0  0  0  0  0  0
   11.0790  -44.1050   46.6510 O   0  0  0  0  0  1  0  0  0  0  0  0
   10.3460  -40.7910   50.1920 O   0  0  0  0  0  1  0  0  0  0  0  0
  1  2  1  0
  1 13  1  0
  1 29  1  0
  2  3  1  0
  3  5  1  0
  4 12  1  0
  4 27  1  0
  4 30  1  0
  5  6  1  0
  6  7  1  0
  7  8  1  0
  8  9  1  0
  9 10  1  0
 10 11  1  0
 11 30  1  0
 11 33  1  0
 12 31  1  0
 12 36  1  0
 14 15  1  0
 14 25  1  0
 14 34  1  0
 14 35  1  0
 15 32  1  0
 16 17  1  0
 16 32  1  0
 17 18  1  0
 17 22  1  0
 18 19  1  0
 19 20  1  0
 19 23  1  0
 20 21  1  0
 21 22  1  0
 23 24  1  0
 23 26  1  0
 25 29  1  0
 25 31  1  0
 28 30  1  0
M  END
$$$$
