5qd7_A_0BI_401
     RDKit          3D

 42 46  0  0  0  0  0  0  0  0999 V2000
   31.1320    9.7510   17.5140 C   0  0  0  0  0  3  0  0  0  0  0  0
   30.9700   10.7950   16.6170 C   0  0  0  0  0  2  0  0  0  0  0  0
   31.3310   10.6080   15.2970 C   0  0  0  0  0  2  0  0  0  0  0  0
   31.8470    9.3960   14.8740 C   0  0  0  0  0  2  0  0  0  0  0  0
   31.0280    9.0880   19.8330 C   0  0  0  0  0  2  0  0  0  0  0  0
   29.9250    9.2170   20.8560 C   0  0  0  0  0  2  0  0  0  0  0  0
   28.5900    8.6780   20.3450 C   0  0  0  0  0  2  0  0  0  0  0  0
   28.6580    7.1350   20.2050 C   0  0  0  0  0  2  0  0  0  0  0  0
   31.4730    6.1830   14.6050 C   0  0  0  0  0  3  0  0  0  0  0  0
   27.1960    6.4600   18.3170 C   0  0  0  0  0  3  0  0  0  0  0  0
   28.2390    6.5230   17.3910 C   0  0  0  0  0  2  0  0  0  0  0  0
   27.9730    6.3620   16.0300 C   0  0  0  0  0  3  0  0  0  0  0  0
   26.6640    6.1930   15.5950 C   0  0  0  0  0  2  0  0  0  0  0  0
   25.6190    6.1410   16.5050 C   0  0  0  0  0  3  0  0  0  0  0  0
   25.8940    6.2690   17.8660 C   0  0  0  0  0  2  0  0  0  0  0  0
   24.2030    5.9370   16.0180 C   0  0  0  0  0  2  0  0  0  0  0  0
   22.8590    4.1290   16.7270 C   0  0  0  0  0  1  0  0  0  0  0  0
   32.5620    7.0150   15.3050 C   0  0  0  0  0  2  0  0  0  0  0  0
   29.0610    6.4080   15.0120 C   0  0  0  0  0  3  0  0  0  0  0  0
   31.9980    4.7850   14.3060 C   0  0  0  0  0  3  0  0  0  0  0  0
   30.9120    3.9690   13.6040 C   0  0  0  0  0  2  0  0  0  0  0  0
   30.5880    2.0340   12.1260 C   0  0  0  0  0  0  0  0  0  0  0  0
   30.8050    0.5510   11.9220 C   0  0  0  0  0  2  0  0  0  0  0  0
   29.6220    1.0030   12.7380 C   0  0  0  0  0  2  0  0  0  0  0  0
   30.6440    2.7050   10.7830 C   0  0  0  0  0  3  0  0  0  0  0  0
   31.8330    2.9150   10.0900 C   0  0  0  0  0  2  0  0  0  0  0  0
   31.8440    3.5580    8.8580 C   0  0  0  0  0  3  0  0  0  0  0  0
   30.6480    4.0050    8.3290 C   0  0  0  0  0  2  0  0  0  0  0  0
   29.4580    3.8100    9.0090 C   0  0  0  0  0  2  0  0  0  0  0  0
   29.4570    3.1630   10.2280 C   0  0  0  0  0  2  0  0  0  0  0  0
   33.1480    3.7950    8.1050 C   0  0  0  0  0  3  0  0  0  0  0  0
   32.0220    8.3460   15.7710 C   0  0  0  0  0  3  0  0  0  0  0  0
   33.7030    5.1890    8.4070 C   0  0  0  0  0  1  0  0  0  0  0  0
   34.2070    2.7470    8.4190 C   0  0  0  0  0  1  0  0  0  0  0  0
   31.6430    8.5290   17.0990 C   0  0  0  0  0  2  0  0  0  0  0  0
   30.2950    6.1400   15.4480 N   0  0  0  0  0  2  0  0  0  0  0  0
   27.4430    6.5910   19.6750 N   0  0  0  0  0  2  0  0  0  0  0  0
   31.4530    2.6800   13.1290 N   0  0  0  0  0  2  0  0  0  0  0  0
   30.7330   10.0340   18.7860 O   0  0  0  0  0  0  0  0  0  0  0  0
   23.9150    4.5650   15.8530 O   0  0  0  0  0  0  0  0  0  0  0  0
   28.8160    6.6580   13.8380 O   0  0  0  0  0  1  0  0  0  0  0  0
   33.1490    4.8860   13.4750 O   0  0  0  0  0  1  0  0  0  0  0  0
  1  2  1  0
  1 35  1  0
  1 39  1  0
  2  3  1  0
  3  4  1  0
  4 32  1  0
  5  6  1  0
  5 39  1  0
  6  7  1  0
  7  8  1  0
  8 37  1  0
  9 18  1  0
  9 20  1  0
  9 36  1  0
 10 11  1  0
 10 15  1  0
 10 37  1  0
 11 12  1  0
 12 13  1  0
 12 19  1  0
 13 14  1  0
 14 15  1  0
 14 16  1  0
 16 40  1  0
 17 40  1  0
 18 32  1  0
 19 36  1  0
 19 41  1  0
 20 21  1  0
 20 42  1  0
 21 38  1  0
 22 23  1  0
 22 24  1  0
 22 25  1  0
 22 38  1  0
 23 24  1  0
 25 26  1  0
 25 30  1  0
 26 27  1  0
 27 28  1  0
 27 31  1  0
 28 29  1  0
 29 30  1  0
 31 33  1  0
 31 34  1  0
 32 35  1  0
M  END
$$$$
