5qd7_C_0BI_401
     RDKit          3D

 42 46  0  0  0  0  0  0  0  0999 V2000
    4.3250  -41.9950   48.4680 C   0  0  0  0  0  3  0  0  0  0  0  0
    3.9940  -42.6290   49.6540 C   0  0  0  0  0  2  0  0  0  0  0  0
    4.8550  -43.5790   50.1680 C   0  0  0  0  0  2  0  0  0  0  0  0
    6.0320  -43.8840   49.5140 C   0  0  0  0  0  2  0  0  0  0  0  0
    3.4120  -40.6140   46.7310 C   0  0  0  0  0  2  0  0  0  0  0  0
    2.8950  -39.1990   46.7950 C   0  0  0  0  0  2  0  0  0  0  0  0
    3.7640  -38.2960   47.6490 C   0  0  0  0  0  2  0  0  0  0  0  0
    5.0260  -37.8680   46.8690 C   0  0  0  0  0  2  0  0  0  0  0  0
    8.8620  -42.7840   48.2090 C   0  0  0  0  0  3  0  0  0  0  0  0
    6.7890  -37.4860   48.5870 C   0  0  0  0  0  3  0  0  0  0  0  0
    7.2140  -38.8130   48.5520 C   0  0  0  0  0  2  0  0  0  0  0  0
    8.1820  -39.2600   49.4550 C   0  0  0  0  0  3  0  0  0  0  0  0
    8.7010  -38.3830   50.4040 C   0  0  0  0  0  2  0  0  0  0  0  0
    8.2840  -37.0670   50.4550 C   0  0  0  0  0  3  0  0  0  0  0  0
    7.3290  -36.6200   49.5390 C   0  0  0  0  0  2  0  0  0  0  0  0
    8.8690  -36.1240   51.4890 C   0  0  0  0  0  2  0  0  0  0  0  0
    9.9380  -34.2290   50.5900 C   0  0  0  0  0  1  0  0  0  0  0  0
    7.6750  -43.5700   47.6260 C   0  0  0  0  0  2  0  0  0  0  0  0
    8.6490  -40.6820   49.4660 C   0  0  0  0  0  3  0  0  0  0  0  0
   10.1230  -42.9690   47.3350 C   0  0  0  0  0  3  0  0  0  0  0  0
   11.3200  -42.2530   47.9670 C   0  0  0  0  0  2  0  0  0  0  0  0
   13.7720  -42.3200   48.0850 C   0  0  0  0  0  0  0  0  0  0  0  0
   15.0770  -42.2270   47.3280 C   0  0  0  0  0  2  0  0  0  0  0  0
   14.3750  -40.9530   47.7130 C   0  0  0  0  0  2  0  0  0  0  0  0
   13.9550  -43.2130   49.2820 C   0  0  0  0  0  3  0  0  0  0  0  0
   14.0710  -44.5980   49.1900 C   0  0  0  0  0  2  0  0  0  0  0  0
   14.2280  -45.3860   50.3290 C   0  0  0  0  0  3  0  0  0  0  0  0
   14.2650  -44.7730   51.5720 C   0  0  0  0  0  2  0  0  0  0  0  0
   14.1520  -43.4000   51.6800 C   0  0  0  0  0  2  0  0  0  0  0  0
   13.9940  -42.6260   50.5430 C   0  0  0  0  0  2  0  0  0  0  0  0
   14.3460  -46.8980   50.2190 C   0  0  0  0  0  3  0  0  0  0  0  0
    6.3770  -43.2480   48.3230 C   0  0  0  0  0  3  0  0  0  0  0  0
   12.9650  -47.5470   50.1910 C   0  0  0  0  0  1  0  0  0  0  0  0
   15.1360  -47.3180   49.0150 C   0  0  0  0  0  1  0  0  0  0  0  0
    5.5170  -42.2810   47.8090 C   0  0  0  0  0  2  0  0  0  0  0  0
    8.4950  -41.3810   48.3280 N   0  0  0  0  0  2  0  0  0  0  0  0
    5.8590  -37.0140   47.6760 N   0  0  0  0  0  2  0  0  0  0  0  0
   12.5750  -42.6250   47.2740 N   0  0  0  0  0  2  0  0  0  0  0  0
    3.3880  -41.0840   48.0740 O   0  0  0  0  0  0  0  0  0  0  0  0
   10.0840  -35.5810   51.0400 O   0  0  0  0  0  0  0  0  0  0  0  0
    9.1380  -41.1780   50.4800 O   0  0  0  0  0  1  0  0  0  0  0  0
   10.4280  -44.3560   47.2210 O   0  0  0  0  0  1  0  0  0  0  0  0
  1  2  1  0
  1 35  1  0
  1 39  1  0
  2  3  1  0
  3  4  1  0
  4 32  1  0
  5  6  1  0
  5 39  1  0
  6  7  1  0
  7  8  1  0
  8 37  1  0
  9 18  1  0
  9 20  1  0
  9 36  1  0
 10 11  1  0
 10 15  1  0
 10 37  1  0
 11 12  1  0
 12 13  1  0
 12 19  1  0
 13 14  1  0
 14 15  1  0
 14 16  1  0
 16 40  1  0
 17 40  1  0
 18 32  1  0
 19 36  1  0
 19 41  1  0
 20 21  1  0
 20 42  1  0
 21 38  1  0
 22 23  1  0
 22 24  1  0
 22 25  1  0
 22 38  1  0
 23 24  1  0
 25 26  1  0
 25 30  1  0
 26 27  1  0
 27 28  1  0
 27 31  1  0
 28 29  1  0
 29 30  1  0
 31 33  1  0
 31 34  1  0
 32 35  1  0
M  END
$$$$
