5qd8_C_E6V_401
     RDKit          3D

 40 42  0  0  0  0  0  0  0  0999 V2000
    8.3200  -43.4630   48.7880 C   0  0  0  0  0  3  0  0  0  0  0  0
    7.1270  -44.1100   48.0790 C   0  0  0  0  0  2  0  0  0  0  0  0
    5.7820  -43.9990   48.8160 C   0  0  0  0  0  2  0  0  0  0  0  0
   10.5160  -39.4820   49.6490 C   0  0  0  0  0  3  0  0  0  0  0  0
    5.1500  -42.6070   48.7380 C   0  0  0  0  0  2  0  0  0  0  0  0
    5.2030  -41.9890   47.3470 C   0  0  0  0  0  2  0  0  0  0  0  0
    4.3080  -40.7460   47.1580 C   0  0  0  0  0  2  0  0  0  0  0  0
    4.8470  -39.4170   47.7480 C   0  0  0  0  0  2  0  0  0  0  0  0
    6.3460  -39.2990   47.8050 C   0  0  0  0  0  2  0  0  0  0  0  0
    6.9130  -38.3620   48.9770 C   0  0  0  0  0  2  0  0  0  0  0  0
    8.4200  -38.3890   48.9530 C   0  0  0  0  0  3  0  0  0  0  0  0
   10.9230  -40.9680   49.7070 C   0  0  0  0  0  3  0  0  0  0  0  0
    8.2530  -43.7040   50.2820 C   0  0  0  0  0  1  0  0  0  0  0  0
   12.0130  -43.3860   47.5930 C   0  0  0  0  0  3  0  0  0  0  0  0
   13.3850  -42.9700   48.1300 C   0  0  0  0  0  2  0  0  0  0  0  0
   10.8810  -43.1410   48.6020 C   0  0  0  0  0  3  0  0  0  0  0  0
   11.2120  -38.6660   50.7230 C   0  0  0  0  0  1  0  0  0  0  0  0
    8.3150  -40.2620   50.5620 C   0  0  0  0  0  1  0  0  0  0  0  0
   15.8250  -43.2830   47.7450 C   0  0  0  0  0  3  0  0  0  0  0  0
   16.1240  -41.7980   48.0860 C   0  0  0  0  0  2  0  0  0  0  0  0
   17.3210  -41.6280   49.0440 C   0  0  0  0  0  0  0  0  0  0  0  0
   17.5160  -40.1950   49.4660 C   0  0  0  0  0  1  0  0  0  0  0  0
   18.6150  -42.1970   48.4930 C   0  0  0  0  0  1  0  0  0  0  0  0
   16.5810  -43.6490   50.1560 C   0  0  0  0  0  3  0  0  0  0  0  0
    9.6470  -43.9640   48.2150 C   0  0  0  0  0  2  0  0  0  0  0  0
   16.3240  -45.7760   51.2440 C   0  0  0  0  0  2  0  0  0  0  0  0
   16.7350  -44.4520   51.2830 C   0  0  0  0  0  2  0  0  0  0  0  0
   15.6020  -45.4880   48.9860 C   0  0  0  0  0  2  0  0  0  0  0  0
   15.7560  -46.3160   50.0970 C   0  0  0  0  0  3  0  0  0  0  0  0
   16.0080  -44.1510   48.9850 C   0  0  0  0  0  3  0  0  0  0  0  0
   15.3110  -47.8000   50.0460 C   0  0  0  0  0  3  0  0  0  0  0  0
   15.9580  -48.5270   48.8670 C   0  0  0  0  0  1  0  0  0  0  0  0
   15.6050  -48.5520   51.3320 C   0  0  0  0  0  1  0  0  0  0  0  0
    9.0530  -39.3420   49.6940 N   0  0  0  0  0  0  0  0  0  0  0  0
   10.5560  -41.7240   48.6730 N   0  0  0  0  0  2  0  0  0  0  0  0
   14.4380  -43.4820   47.2420 N   0  0  0  0  0  2  0  0  0  0  0  0
    9.0330  -37.6220   48.2270 O   0  0  0  0  0  1  0  0  0  0  0  0
   12.0550  -44.7670   47.2400 O   0  0  0  0  0  1  0  0  0  0  0  0
   11.5310  -41.4230   50.6680 O   0  0  0  0  0  1  0  0  0  0  0  0
   17.0150  -42.3450   50.2690 O   0  0  0  0  0  0  0  0  0  0  0  0
  1  2  1  0
  1 13  1  0
  1 25  1  0
  2  3  1  0
  3  5  1  0
  4 12  1  0
  4 17  1  0
  4 34  1  0
  5  6  1  0
  6  7  1  0
  7  8  1  0
  8  9  1  0
  9 10  1  0
 10 11  1  0
 11 34  1  0
 11 37  1  0
 12 35  1  0
 12 39  1  0
 14 15  1  0
 14 16  1  0
 14 38  1  0
 15 36  1  0
 16 25  1  0
 16 35  1  0
 18 34  1  0
 19 20  1  0
 19 30  1  0
 19 36  1  0
 20 21  1  0
 21 22  1  0
 21 23  1  0
 21 40  1  0
 24 27  1  0
 24 30  1  0
 24 40  1  0
 26 27  1  0
 26 29  1  0
 28 29  1  0
 28 30  1  0
 29 31  1  0
 31 32  1  0
 31 33  1  0
M  END
$$$$
