5qd8_B_E6V_401
     RDKit          3D

 40 42  0  0  0  0  0  0  0  0999 V2000
   15.0460    7.0050  -17.7390 C   0  0  0  0  0  3  0  0  0  0  0  0
   14.6900    7.1220  -16.2420 C   0  0  0  0  0  2  0  0  0  0  0  0
   14.2770    5.8320  -15.5640 C   0  0  0  0  0  2  0  0  0  0  0  0
   17.6500    5.1990  -21.1250 C   0  0  0  0  0  3  0  0  0  0  0  0
   15.3630    4.7570  -15.5830 C   0  0  0  0  0  2  0  0  0  0  0  0
   16.6110    5.1000  -14.7600 C   0  0  0  0  0  2  0  0  0  0  0  0
   17.5470    3.8830  -14.5420 C   0  0  0  0  0  2  0  0  0  0  0  0
   17.6210    2.9200  -15.7440 C   0  0  0  0  0  2  0  0  0  0  0  0
   18.4940    3.4460  -16.8950 C   0  0  0  0  0  2  0  0  0  0  0  0
   18.2580    2.7460  -18.2680 C   0  0  0  0  0  2  0  0  0  0  0  0
   18.5270    3.6930  -19.4000 C   0  0  0  0  0  3  0  0  0  0  0  0
   16.6580    6.3740  -21.0130 C   0  0  0  0  0  3  0  0  0  0  0  0
   13.8500    6.5470  -18.5580 C   0  0  0  0  0  1  0  0  0  0  0  0
   16.7760    9.6180  -19.9690 C   0  0  0  0  0  3  0  0  0  0  0  0
   17.0430    9.9040  -21.4600 C   0  0  0  0  0  2  0  0  0  0  0  0
   16.0000    8.3220  -19.7090 C   0  0  0  0  0  3  0  0  0  0  0  0
   17.5920    4.5370  -22.4910 C   0  0  0  0  0  1  0  0  0  0  0  0
   16.0880    3.9060  -19.6660 C   0  0  0  0  0  1  0  0  0  0  0  0
   17.3220   11.7940  -23.0880 C   0  0  0  0  0  3  0  0  0  0  0  0
   18.1690   10.9250  -24.0170 C   0  0  0  0  0  2  0  0  0  0  0  0
   17.9300   11.2570  -25.4990 C   0  0  0  0  0  0  0  0  0  0  0  0
   18.7190   10.3470  -26.4330 C   0  0  0  0  0  1  0  0  0  0  0  0
   18.2070   12.7210  -25.8140 C   0  0  0  0  0  1  0  0  0  0  0  0
   15.5870   11.5210  -24.9490 C   0  0  0  0  0  3  0  0  0  0  0  0
   15.5700    8.3420  -18.2570 C   0  0  0  0  0  2  0  0  0  0  0  0
   13.3010   12.1770  -24.6470 C   0  0  0  0  0  2  0  0  0  0  0  0
   14.2990   11.6490  -25.4530 C   0  0  0  0  0  2  0  0  0  0  0  0
   14.8730   12.4370  -22.8620 C   0  0  0  0  0  2  0  0  0  0  0  0
   13.5730   12.5660  -23.3390 C   0  0  0  0  0  3  0  0  0  0  0  0
   15.9010   11.9060  -23.6430 C   0  0  0  0  0  3  0  0  0  0  0  0
   12.5110   13.1790  -22.4900 C   0  0  0  0  0  3  0  0  0  0  0  0
   12.9280   14.6150  -22.1760 C   0  0  0  0  0  1  0  0  0  0  0  0
   11.1670   13.2050  -23.2250 C   0  0  0  0  0  1  0  0  0  0  0  0
   17.4560    4.2410  -20.0310 N   0  0  0  0  0  0  0  0  0  0  0  0
   16.8290    7.1620  -19.9560 N   0  0  0  0  0  2  0  0  0  0  0  0
   17.2440   11.3530  -21.6570 N   0  0  0  0  0  2  0  0  0  0  0  0
   19.6760    3.9820  -19.7080 O   0  0  0  0  0  1  0  0  0  0  0  0
   16.0520   10.7130  -19.3870 O   0  0  0  0  0  1  0  0  0  0  0  0
   15.7890    6.5700  -21.8590 O   0  0  0  0  0  1  0  0  0  0  0  0
   16.5130   11.0020  -25.8010 O   0  0  0  0  0  0  0  0  0  0  0  0
  1  2  1  0
  1 13  1  0
  1 25  1  0
  2  3  1  0
  3  5  1  0
  4 12  1  0
  4 17  1  0
  4 34  1  0
  5  6  1  0
  6  7  1  0
  7  8  1  0
  8  9  1  0
  9 10  1  0
 10 11  1  0
 11 34  1  0
 11 37  1  0
 12 35  1  0
 12 39  1  0
 14 15  1  0
 14 16  1  0
 14 38  1  0
 15 36  1  0
 16 25  1  0
 16 35  1  0
 18 34  1  0
 19 20  1  0
 19 30  1  0
 19 36  1  0
 20 21  1  0
 21 22  1  0
 21 23  1  0
 21 40  1  0
 24 27  1  0
 24 30  1  0
 24 40  1  0
 26 27  1  0
 26 29  1  0
 28 29  1  0
 28 30  1  0
 29 31  1  0
 31 32  1  0
 31 33  1  0
M  END
$$$$
