5qd9_A_E6Y_401
     RDKit          3D

 38 40  0  0  0  0  0  0  0  0999 V2000
   31.1960    8.3870   15.7900 C   0  0  0  0  0  3  0  0  0  0  0  0
   32.2240    9.2650   16.5270 C   0  0  0  0  0  2  0  0  0  0  0  0
   31.6260   10.4080   17.3510 C   0  0  0  0  0  2  0  0  0  0  0  0
   27.3280    5.7050   16.2090 C   0  0  0  0  0  3  0  0  0  0  0  0
   30.5810    9.9660   18.3440 C   0  0  0  0  0  2  0  0  0  0  0  0
   31.1140    9.0750   19.4600 C   0  0  0  0  0  2  0  0  0  0  0  0
   30.1270    8.8150   20.5510 C   0  0  0  0  0  2  0  0  0  0  0  0
   28.7290    9.0510   20.0960 C   0  0  0  0  0  2  0  0  0  0  0  0
   26.8620    7.8060   19.3350 C   0  0  0  0  0  2  0  0  0  0  0  0
   26.9190    6.6300   18.3990 C   0  0  0  0  0  3  0  0  0  0  0  0
   30.5930    9.1200   14.6010 C   0  0  0  0  0  1  0  0  0  0  0  0
   28.3880    5.9520   15.1260 C   0  0  0  0  0  3  0  0  0  0  0  0
   31.5310    4.7850   14.3520 C   0  0  0  0  0  3  0  0  0  0  0  0
   30.6440    3.9560   13.4390 C   0  0  0  0  0  2  0  0  0  0  0  0
   30.7330    2.0740   11.9690 C   0  0  0  0  0  0  0  0  0  0  0  0
   31.1460    0.6440   11.8210 C   0  0  0  0  0  2  0  0  0  0  0  0
   29.8670    0.9530   12.5380 C   0  0  0  0  0  2  0  0  0  0  0  0
   30.6650    2.8060   10.6490 C   0  0  0  0  0  3  0  0  0  0  0  0
   31.8520    3.1460   10.0040 C   0  0  0  0  0  2  0  0  0  0  0  0
   31.8210    3.8270    8.7920 C   0  0  0  0  0  3  0  0  0  0  0  0
   30.5900    4.1770    8.2440 C   0  0  0  0  0  2  0  0  0  0  0  0
   29.4080    3.8510    8.8880 C   0  0  0  0  0  2  0  0  0  0  0  0
   29.4450    3.1610   10.0820 C   0  0  0  0  0  2  0  0  0  0  0  0
   33.1160    4.2090    8.0740 C   0  0  0  0  0  0  0  0  0  0  0  0
   33.9940    2.9790    7.8360 C   0  0  0  0  0  1  0  0  0  0  0  0
   30.8130    6.0950   14.6840 C   0  0  0  0  0  3  0  0  0  0  0  0
   32.7880    4.8520    6.7470 C   0  0  0  0  0  1  0  0  0  0  0  0
   33.9130    5.2240    8.9170 C   0  0  0  0  0  1  0  0  0  0  0  0
   25.9700    5.3410   15.6290 C   0  0  0  0  0  1  0  0  0  0  0  0
   27.5250    8.1840   16.5740 C   0  0  0  0  0  1  0  0  0  0  0  0
   31.7960    7.0310   15.3710 C   0  0  0  0  0  2  0  0  0  0  0  0
   27.2490    6.8510   17.1150 N   0  0  0  0  0  0  0  0  0  0  0  0
   31.4590    2.8210   12.9860 N   0  0  0  0  0  2  0  0  0  0  0  0
   29.6590    5.8670   15.5470 N   0  0  0  0  0  2  0  0  0  0  0  0
   28.0350    7.8220   20.1220 O   0  0  0  0  0  0  0  0  0  0  0  0
   26.7070    5.5040   18.8270 O   0  0  0  0  0  1  0  0  0  0  0  0
   32.7670    5.0540   13.6760 O   0  0  0  0  0  1  0  0  0  0  0  0
   28.0720    6.2100   13.9660 O   0  0  0  0  0  1  0  0  0  0  0  0
  1  2  1  0
  1 11  1  0
  1 31  1  0
  2  3  1  0
  3  5  1  0
  4 12  1  0
  4 29  1  0
  4 32  1  0
  5  6  1  0
  6  7  1  0
  7  8  1  0
  8 35  1  0
  9 10  1  0
  9 35  1  0
 10 32  1  0
 10 36  1  0
 12 34  1  0
 12 38  1  0
 13 14  1  0
 13 26  1  0
 13 37  1  0
 14 33  1  0
 15 16  1  0
 15 17  1  0
 15 18  1  0
 15 33  1  0
 16 17  1  0
 18 19  1  0
 18 23  1  0
 19 20  1  0
 20 21  1  0
 20 24  1  0
 21 22  1  0
 22 23  1  0
 24 25  1  0
 24 27  1  0
 24 28  1  0
 26 31  1  0
 26 34  1  0
 30 32  1  0
M  END
$$$$
