5qd9_B_E6Y_401
     RDKit          3D

 38 40  0  0  0  0  0  0  0  0999 V2000
   14.5560    6.1560  -16.3630 C   0  0  0  0  0  3  0  0  0  0  0  0
   14.1320    6.2380  -14.8790 C   0  0  0  0  0  2  0  0  0  0  0  0
   13.8450    4.8900  -14.2130 C   0  0  0  0  0  2  0  0  0  0  0  0
   17.1920    4.3460  -19.7790 C   0  0  0  0  0  3  0  0  0  0  0  0
   15.0170    3.8920  -14.3250 C   0  0  0  0  0  2  0  0  0  0  0  0
   16.2730    4.3020  -13.5510 C   0  0  0  0  0  2  0  0  0  0  0  0
   17.5420    3.6180  -14.0010 C   0  0  0  0  0  2  0  0  0  0  0  0
   17.2510    2.4380  -14.8550 C   0  0  0  0  0  2  0  0  0  0  0  0
   17.8150    1.7710  -17.0440 C   0  0  0  0  0  2  0  0  0  0  0  0
   18.0400    2.7980  -18.1270 C   0  0  0  0  0  3  0  0  0  0  0  0
   13.4300    5.6200  -17.2410 C   0  0  0  0  0  1  0  0  0  0  0  0
   16.1770    5.4980  -19.6970 C   0  0  0  0  0  3  0  0  0  0  0  0
   16.0870    8.7530  -18.7870 C   0  0  0  0  0  3  0  0  0  0  0  0
   16.3220    8.7780  -20.2890 C   0  0  0  0  0  2  0  0  0  0  0  0
   16.5890   10.3800  -22.0850 C   0  0  0  0  0  0  0  0  0  0  0  0
   17.4390   11.5490  -22.5510 C   0  0  0  0  0  2  0  0  0  0  0  0
   17.9390   10.1470  -22.7710 C   0  0  0  0  0  2  0  0  0  0  0  0
   15.1840   10.4440  -22.6670 C   0  0  0  0  0  3  0  0  0  0  0  0
   14.3190   11.4380  -22.2090 C   0  0  0  0  0  2  0  0  0  0  0  0
   13.0230   11.5370  -22.7120 C   0  0  0  0  0  3  0  0  0  0  0  0
   12.6110   10.6250  -23.6840 C   0  0  0  0  0  2  0  0  0  0  0  0
   13.4730    9.6410  -24.1490 C   0  0  0  0  0  2  0  0  0  0  0  0
   14.7580    9.5550  -23.6450 C   0  0  0  0  0  2  0  0  0  0  0  0
   12.0720   12.6340  -22.2200 C   0  0  0  0  0  0  0  0  0  0  0  0
   12.7550   13.9950  -22.3090 C   0  0  0  0  0  1  0  0  0  0  0  0
   15.4200    7.4360  -18.3640 C   0  0  0  0  0  3  0  0  0  0  0  0
   10.8130   12.6640  -23.1040 C   0  0  0  0  0  1  0  0  0  0  0  0
   11.6630   12.4210  -20.7400 C   0  0  0  0  0  1  0  0  0  0  0  0
   17.2410    3.7290  -21.1700 C   0  0  0  0  0  1  0  0  0  0  0  0
   15.5830    2.9800  -18.4220 C   0  0  0  0  0  1  0  0  0  0  0  0
   15.0560    7.4950  -16.8890 C   0  0  0  0  0  2  0  0  0  0  0  0
   16.9640    3.3460  -18.7350 N   0  0  0  0  0  0  0  0  0  0  0  0
   16.6030   10.1840  -20.6340 N   0  0  0  0  0  2  0  0  0  0  0  0
   16.2890    6.2830  -18.6160 N   0  0  0  0  0  2  0  0  0  0  0  0
   18.2760    2.2710  -15.8110 O   0  0  0  0  0  0  0  0  0  0  0  0
   19.1810    3.1350  -18.4050 O   0  0  0  0  0  1  0  0  0  0  0  0
   15.2720    9.8660  -18.4340 O   0  0  0  0  0  1  0  0  0  0  0  0
   15.3450    5.6790  -20.5840 O   0  0  0  0  0  1  0  0  0  0  0  0
  1  2  1  0
  1 11  1  0
  1 31  1  0
  2  3  1  0
  3  5  1  0
  4 12  1  0
  4 29  1  0
  4 32  1  0
  5  6  1  0
  6  7  1  0
  7  8  1  0
  8 35  1  0
  9 10  1  0
  9 35  1  0
 10 32  1  0
 10 36  1  0
 12 34  1  0
 12 38  1  0
 13 14  1  0
 13 26  1  0
 13 37  1  0
 14 33  1  0
 15 16  1  0
 15 17  1  0
 15 18  1  0
 15 33  1  0
 16 17  1  0
 18 19  1  0
 18 23  1  0
 19 20  1  0
 20 21  1  0
 20 24  1  0
 21 22  1  0
 22 23  1  0
 24 25  1  0
 24 27  1  0
 24 28  1  0
 26 31  1  0
 26 34  1  0
 30 32  1  0
M  END
$$$$
