5qd9_C_E6Y_401
     RDKit          3D

 38 40  0  0  0  0  0  0  0  0999 V2000
    6.8980  -43.2670   47.9770 C   0  0  0  0  0  3  0  0  0  0  0  0
    5.6590  -43.9450   47.3740 C   0  0  0  0  0  2  0  0  0  0  0  0
    4.3350  -43.5110   47.9960 C   0  0  0  0  0  2  0  0  0  0  0  0
    9.1070  -39.3010   48.8060 C   0  0  0  0  0  3  0  0  0  0  0  0
    4.0320  -42.0250   47.7780 C   0  0  0  0  0  2  0  0  0  0  0  0
    3.8800  -41.6330   46.2870 C   0  0  0  0  0  2  0  0  0  0  0  0
    3.7990  -40.1270   46.0270 C   0  0  0  0  0  2  0  0  0  0  0  0
    3.9930  -39.3350   47.2620 C   0  0  0  0  0  2  0  0  0  0  0  0
    5.5990  -37.9260   48.2140 C   0  0  0  0  0  2  0  0  0  0  0  0
    7.0910  -38.1480   48.1220 C   0  0  0  0  0  3  0  0  0  0  0  0
    7.0070  -43.5270   49.4870 C   0  0  0  0  0  1  0  0  0  0  0  0
    9.4770  -40.7950   48.8820 C   0  0  0  0  0  3  0  0  0  0  0  0
   10.5690  -43.2430   46.7260 C   0  0  0  0  0  3  0  0  0  0  0  0
   11.8340  -42.6250   47.2820 C   0  0  0  0  0  2  0  0  0  0  0  0
   14.1800  -43.0110   47.4630 C   0  0  0  0  0  0  0  0  0  0  0  0
   15.4210  -42.8480   46.6130 C   0  0  0  0  0  2  0  0  0  0  0  0
   14.6830  -41.6170   47.0560 C   0  0  0  0  0  2  0  0  0  0  0  0
   14.3990  -43.8640   48.7130 C   0  0  0  0  0  3  0  0  0  0  0  0
   14.4420  -45.2460   48.5620 C   0  0  0  0  0  2  0  0  0  0  0  0
   14.6410  -46.0700   49.6650 C   0  0  0  0  0  3  0  0  0  0  0  0
   14.7690  -45.4910   50.9290 C   0  0  0  0  0  2  0  0  0  0  0  0
   14.7150  -44.1160   51.0850 C   0  0  0  0  0  2  0  0  0  0  0  0
   14.5280  -43.3040   49.9820 C   0  0  0  0  0  2  0  0  0  0  0  0
   14.6670  -47.5910   49.5130 C   0  0  0  0  0  0  0  0  0  0  0  0
   15.6520  -48.0570   48.4300 C   0  0  0  0  0  1  0  0  0  0  0  0
    9.4260  -42.9510   47.7020 C   0  0  0  0  0  3  0  0  0  0  0  0
   15.0600  -48.2050   50.8730 C   0  0  0  0  0  1  0  0  0  0  0  0
   13.2630  -48.0920   49.1060 C   0  0  0  0  0  1  0  0  0  0  0  0
    9.8740  -38.4510   49.8120 C   0  0  0  0  0  1  0  0  0  0  0  0
    6.8950  -39.8910   49.8630 C   0  0  0  0  0  1  0  0  0  0  0  0
    8.1680  -43.6870   47.2520 C   0  0  0  0  0  2  0  0  0  0  0  0
    7.6520  -39.0890   48.9030 N   0  0  0  0  0  0  0  0  0  0  0  0
   12.9660  -43.4000   46.7580 N   0  0  0  0  0  2  0  0  0  0  0  0
    9.1680  -41.5150   47.8020 N   0  0  0  0  0  2  0  0  0  0  0  0
    4.9590  -38.3580   47.0350 O   0  0  0  0  0  0  0  0  0  0  0  0
    7.7520  -37.4900   47.3300 O   0  0  0  0  0  1  0  0  0  0  0  0
   10.7650  -44.6540   46.5830 O   0  0  0  0  0  1  0  0  0  0  0  0
   10.0060  -41.2770   49.8820 O   0  0  0  0  0  1  0  0  0  0  0  0
  1  2  1  0
  1 11  1  0
  1 31  1  0
  2  3  1  0
  3  5  1  0
  4 12  1  0
  4 29  1  0
  4 32  1  0
  5  6  1  0
  6  7  1  0
  7  8  1  0
  8 35  1  0
  9 10  1  0
  9 35  1  0
 10 32  1  0
 10 36  1  0
 12 34  1  0
 12 38  1  0
 13 14  1  0
 13 26  1  0
 13 37  1  0
 14 33  1  0
 15 16  1  0
 15 17  1  0
 15 18  1  0
 15 33  1  0
 16 17  1  0
 18 19  1  0
 18 23  1  0
 19 20  1  0
 20 21  1  0
 20 24  1  0
 21 22  1  0
 22 23  1  0
 24 25  1  0
 24 27  1  0
 24 28  1  0
 26 31  1  0
 26 34  1  0
 30 32  1  0
M  END
$$$$
