5qda_C_E74_401
     RDKit          3D

 38 41  0  0  0  0  0  0  0  0999 V2000
    4.7370  -42.3650   47.9470 C   0  0  0  0  0  3  0  0  0  0  0  0
    4.5280  -42.5860   49.2970 C   0  0  0  0  0  2  0  0  0  0  0  0
    5.4880  -43.2180   50.0650 C   0  0  0  0  0  2  0  0  0  0  0  0
    6.6620  -43.6610   49.4860 C   0  0  0  0  0  2  0  0  0  0  0  0
    3.6880  -41.7000   47.1100 C   0  0  0  0  0  2  0  0  0  0  0  0
    3.7120  -40.1930   46.8480 C   0  0  0  0  0  2  0  0  0  0  0  0
    4.5410  -39.3050   47.7260 C   0  0  0  0  0  2  0  0  0  0  0  0
    5.4720  -38.4900   46.8400 C   0  0  0  0  0  2  0  0  0  0  0  0
    9.4440  -43.1780   48.0150 C   0  0  0  0  0  3  0  0  0  0  0  0
    7.3710  -37.9470   48.3540 C   0  0  0  0  0  3  0  0  0  0  0  0
    9.0070  -37.2920   49.8170 C   0  0  0  0  0  3  0  0  0  0  0  0
    9.5390  -38.5770   49.9200 C   0  0  0  0  0  2  0  0  0  0  0  0
    8.9220  -39.5790   49.1660 C   0  0  0  0  0  3  0  0  0  0  0  0
    7.8190  -39.2660   48.3720 C   0  0  0  0  0  2  0  0  0  0  0  0
    9.3690  -41.0120   49.2030 C   0  0  0  0  0  3  0  0  0  0  0  0
   10.7640  -36.4120   51.1000 C   0  0  0  0  0  1  0  0  0  0  0  0
   10.6800  -43.4030   47.1190 C   0  0  0  0  0  3  0  0  0  0  0  0
    8.2110  -43.9570   47.4960 C   0  0  0  0  0  2  0  0  0  0  0  0
   11.9390  -42.7570   47.7300 C   0  0  0  0  0  2  0  0  0  0  0  0
   14.3980  -42.8030   47.5870 C   0  0  0  0  0  2  0  0  0  0  0  0
   14.5430  -43.5870   48.8750 C   0  0  0  0  0  3  0  0  0  0  0  0
   14.5720  -44.9770   48.8450 C   0  0  0  0  0  2  0  0  0  0  0  0
   14.7020  -45.7320   49.9990 C   0  0  0  0  0  3  0  0  0  0  0  0
   14.7750  -45.0730   51.2180 C   0  0  0  0  0  2  0  0  0  0  0  0
   14.7380  -43.6890   51.2710 C   0  0  0  0  0  2  0  0  0  0  0  0
   14.6170  -42.9510   50.1060 C   0  0  0  0  0  2  0  0  0  0  0  0
   14.7460  -47.2530   49.9170 C   0  0  0  0  0  3  0  0  0  0  0  0
   13.3480  -47.8430   49.8290 C   0  0  0  0  0  1  0  0  0  0  0  0
   15.5880  -47.7370   48.7390 C   0  0  0  0  0  1  0  0  0  0  0  0
    6.8980  -43.4770   48.1340 C   0  0  0  0  0  3  0  0  0  0  0  0
    5.9220  -42.8300   47.3720 C   0  0  0  0  0  2  0  0  0  0  0  0
    9.1090  -41.7520   48.1130 N   0  0  0  0  0  2  0  0  0  0  0  0
    6.3040  -37.5740   47.5870 N   0  0  0  0  0  2  0  0  0  0  0  0
    7.9540  -36.9720   49.0680 N   0  0  0  0  0  2  0  0  0  0  0  0
   13.1160  -43.0760   46.8950 N   0  0  0  0  0  2  0  0  0  0  0  0
    9.9100  -41.4820   50.2020 O   0  0  0  0  0  1  0  0  0  0  0  0
    9.5240  -36.2460   50.4850 O   0  0  0  0  0  0  0  0  0  0  0  0
   10.9140  -44.7940   46.9260 O   0  0  0  0  0  1  0  0  0  0  0  0
  1  2  1  0
  1  5  1  0
  1 31  1  0
  2  3  1  0
  3  4  1  0
  4 30  1  0
  5  6  1  0
  6  7  1  0
  7  8  1  0
  8 33  1  0
  9 17  1  0
  9 18  1  0
  9 32  1  0
 10 14  1  0
 10 33  1  0
 10 34  1  0
 11 12  1  0
 11 34  1  0
 11 37  1  0
 12 13  1  0
 13 14  1  0
 13 15  1  0
 15 32  1  0
 15 36  1  0
 16 37  1  0
 17 19  1  0
 17 38  1  0
 18 30  1  0
 19 35  1  0
 20 21  1  0
 20 35  1  0
 21 22  1  0
 21 26  1  0
 22 23  1  0
 23 24  1  0
 23 27  1  0
 24 25  1  0
 25 26  1  0
 27 28  1  0
 27 29  1  0
 30 31  1  0
M  END
$$$$
