5qdb_B_BAV_401
     RDKit          3D

 35 36  0  0  0  0  0  0  0  0999 V2000
   14.6880    6.0270  -16.9770 C   0  0  0  0  0  3  0  0  0  0  0  0
   14.3990    6.1140  -15.4540 C   0  0  0  0  0  2  0  0  0  0  0  0
   13.8850    4.8320  -14.7720 C   0  0  0  0  0  2  0  0  0  0  0  0
   17.3730    4.3400  -20.4940 C   0  0  0  0  0  3  0  0  0  0  0  0
   14.9160    3.6880  -14.6910 C   0  0  0  0  0  2  0  0  0  0  0  0
   16.2800    4.0960  -14.1230 C   0  0  0  0  0  2  0  0  0  0  0  0
   17.2430    2.9240  -13.9900 C   0  0  0  0  0  2  0  0  0  0  0  0
   17.3470    2.0810  -15.2540 C   0  0  0  0  0  2  0  0  0  0  0  0
   18.2530    2.6770  -16.3240 C   0  0  0  0  0  2  0  0  0  0  0  0
   18.1780    1.9370  -17.6800 C   0  0  0  0  0  2  0  0  0  0  0  0
   18.3260    2.8850  -18.8230 C   0  0  0  0  0  3  0  0  0  0  0  0
   16.3830    5.5100  -20.3730 C   0  0  0  0  0  3  0  0  0  0  0  0
   13.4800    5.5070  -17.7640 C   0  0  0  0  0  1  0  0  0  0  0  0
   16.2990    8.7500  -19.3450 C   0  0  0  0  0  3  0  0  0  0  0  0
   16.5460    8.8760  -20.8480 C   0  0  0  0  0  2  0  0  0  0  0  0
   17.0140   10.6420  -22.5040 C   0  0  0  0  0  2  0  0  0  0  0  0
   15.6110   10.6780  -23.0920 C   0  0  0  0  0  3  0  0  0  0  0  0
   14.6390   11.5520  -22.6000 C   0  0  0  0  0  2  0  0  0  0  0  0
   13.3570   11.6050  -23.1560 C   0  0  0  0  0  3  0  0  0  0  0  0
   13.0640   10.7800  -24.2320 C   0  0  0  0  0  2  0  0  0  0  0  0
   14.0210    9.9190  -24.7390 C   0  0  0  0  0  2  0  0  0  0  0  0
   15.2860    9.8730  -24.1770 C   0  0  0  0  0  2  0  0  0  0  0  0
   12.2800   12.5340  -22.6080 C   0  0  0  0  0  3  0  0  0  0  0  0
   12.7600   13.9630  -22.4580 C   0  0  0  0  0  1  0  0  0  0  0  0
   15.6090    7.4090  -18.9860 C   0  0  0  0  0  3  0  0  0  0  0  0
   11.7190   12.0320  -21.3030 C   0  0  0  0  0  1  0  0  0  0  0  0
   17.2600    3.6560  -21.8510 C   0  0  0  0  0  1  0  0  0  0  0  0
   15.8420    3.0680  -18.9720 C   0  0  0  0  0  1  0  0  0  0  0  0
   15.1450    7.3930  -17.5270 C   0  0  0  0  0  2  0  0  0  0  0  0
   17.2080    3.4030  -19.3870 N   0  0  0  0  0  0  0  0  0  0  0  0
   16.4870    6.2660  -19.2540 N   0  0  0  0  0  2  0  0  0  0  0  0
   17.0860   10.2320  -21.0940 N   0  0  0  0  0  2  0  0  0  0  0  0
   19.4410    3.1820  -19.2240 O   0  0  0  0  0  1  0  0  0  0  0  0
   15.5090    9.8650  -18.9230 O   0  0  0  0  0  1  0  0  0  0  0  0
   15.5550    5.7260  -21.2550 O   0  0  0  0  0  1  0  0  0  0  0  0
  1  2  1  0
  1 13  1  0
  1 29  1  0
  2  3  1  0
  3  5  1  0
  4 12  1  0
  4 27  1  0
  4 30  1  0
  5  6  1  0
  6  7  1  0
  7  8  1  0
  8  9  1  0
  9 10  1  0
 10 11  1  0
 11 30  1  0
 11 33  1  0
 12 31  1  0
 12 35  1  0
 14 15  1  0
 14 25  1  0
 14 34  1  0
 15 32  1  0
 16 17  1  0
 16 32  1  0
 17 18  1  0
 17 22  1  0
 18 19  1  0
 19 20  1  0
 19 23  1  0
 20 21  1  0
 21 22  1  0
 23 24  1  0
 23 26  1  0
 25 29  1  0
 25 31  1  0
 28 30  1  0
M  END
$$$$
