5qdb_C_BAV_401
     RDKit          3D

 35 36  0  0  0  0  0  0  0  0999 V2000
    7.6220  -43.0450   48.5280 C   0  0  0  0  0  3  0  0  0  0  0  0
    6.4180  -43.8200   47.9710 C   0  0  0  0  0  2  0  0  0  0  0  0
    5.0710  -43.4910   48.6150 C   0  0  0  0  0  2  0  0  0  0  0  0
   10.0190  -39.0220   49.3700 C   0  0  0  0  0  3  0  0  0  0  0  0
    4.6590  -42.0250   48.4510 C   0  0  0  0  0  2  0  0  0  0  0  0
    4.7320  -41.5320   47.0300 C   0  0  0  0  0  2  0  0  0  0  0  0
    3.9650  -40.2600   46.8040 C   0  0  0  0  0  2  0  0  0  0  0  0
    4.4490  -39.0940   47.6690 C   0  0  0  0  0  2  0  0  0  0  0  0
    5.9260  -38.7660   47.4550 C   0  0  0  0  0  2  0  0  0  0  0  0
    6.5300  -37.7830   48.5320 C   0  0  0  0  0  2  0  0  0  0  0  0
    8.0140  -37.9210   48.5470 C   0  0  0  0  0  3  0  0  0  0  0  0
   10.3690  -40.5300   49.3920 C   0  0  0  0  0  3  0  0  0  0  0  0
    7.7910  -43.2790   50.0300 C   0  0  0  0  0  1  0  0  0  0  0  0
   11.3550  -42.9760   47.2630 C   0  0  0  0  0  3  0  0  0  0  0  0
   12.6870  -42.4560   47.8080 C   0  0  0  0  0  2  0  0  0  0  0  0
   15.1000  -42.8010   47.5020 C   0  0  0  0  0  2  0  0  0  0  0  0
   15.3010  -43.5970   48.7780 C   0  0  0  0  0  3  0  0  0  0  0  0
   15.2670  -44.9920   48.7610 C   0  0  0  0  0  2  0  0  0  0  0  0
   15.4870  -45.7440   49.9120 C   0  0  0  0  0  3  0  0  0  0  0  0
   15.7280  -45.0780   51.1070 C   0  0  0  0  0  2  0  0  0  0  0  0
   15.7700  -43.6930   51.1420 C   0  0  0  0  0  2  0  0  0  0  0  0
   15.5540  -42.9590   49.9860 C   0  0  0  0  0  2  0  0  0  0  0  0
   15.4280  -47.2710   49.8740 C   0  0  0  0  0  3  0  0  0  0  0  0
   16.1480  -47.8420   48.6780 C   0  0  0  0  0  1  0  0  0  0  0  0
   10.1720  -42.6990   48.2250 C   0  0  0  0  0  3  0  0  0  0  0  0
   14.0090  -47.7400   49.8810 C   0  0  0  0  0  1  0  0  0  0  0  0
   10.7240  -38.2390   50.4770 C   0  0  0  0  0  1  0  0  0  0  0  0
    7.7740  -39.6440   50.3070 C   0  0  0  0  0  1  0  0  0  0  0  0
    8.9010  -43.4100   47.7640 C   0  0  0  0  0  2  0  0  0  0  0  0
    8.5660  -38.8300   49.3810 N   0  0  0  0  0  0  0  0  0  0  0  0
    9.9250  -41.2600   48.3500 N   0  0  0  0  0  2  0  0  0  0  0  0
   13.7550  -42.9360   46.9090 N   0  0  0  0  0  2  0  0  0  0  0  0
    8.6960  -37.2380   47.7980 O   0  0  0  0  0  1  0  0  0  0  0  0
   11.5120  -44.3750   47.0220 O   0  0  0  0  0  1  0  0  0  0  0  0
   11.0020  -41.0180   50.3200 O   0  0  0  0  0  1  0  0  0  0  0  0
  1  2  1  0
  1 13  1  0
  1 29  1  0
  2  3  1  0
  3  5  1  0
  4 12  1  0
  4 27  1  0
  4 30  1  0
  5  6  1  0
  6  7  1  0
  7  8  1  0
  8  9  1  0
  9 10  1  0
 10 11  1  0
 11 30  1  0
 11 33  1  0
 12 31  1  0
 12 35  1  0
 14 15  1  0
 14 25  1  0
 14 34  1  0
 15 32  1  0
 16 17  1  0
 16 32  1  0
 17 18  1  0
 17 22  1  0
 18 19  1  0
 19 20  1  0
 19 23  1  0
 20 21  1  0
 21 22  1  0
 23 24  1  0
 23 26  1  0
 25 29  1  0
 25 31  1  0
 28 30  1  0
M  END
$$$$
