5qdb_A_BAV_401
     RDKit          3D

 35 36  0  0  0  0  0  0  0  0999 V2000
   31.2350    8.1290   15.7920 C   0  0  0  0  0  3  0  0  0  0  0  0
   32.3020    9.0050   16.4400 C   0  0  0  0  0  2  0  0  0  0  0  0
   31.7930   10.2830   17.1200 C   0  0  0  0  0  2  0  0  0  0  0  0
   27.2860    5.4440   15.9390 C   0  0  0  0  0  3  0  0  0  0  0  0
   30.7570   10.0600   18.2290 C   0  0  0  0  0  2  0  0  0  0  0  0
   31.2510    9.1980   19.3860 C   0  0  0  0  0  2  0  0  0  0  0  0
   30.3390    9.2410   20.6410 C   0  0  0  0  0  2  0  0  0  0  0  0
   28.8410    8.9920   20.3490 C   0  0  0  0  0  2  0  0  0  0  0  0
   28.5650    7.5970   19.7640 C   0  0  0  0  0  2  0  0  0  0  0  0
   27.1100    7.3990   19.2150 C   0  0  0  0  0  2  0  0  0  0  0  0
   27.0830    6.2590   18.2170 C   0  0  0  0  0  3  0  0  0  0  0  0
   28.4290    5.6390   14.9320 C   0  0  0  0  0  3  0  0  0  0  0  0
   30.5210    8.8680   14.6370 C   0  0  0  0  0  1  0  0  0  0  0  0
   31.5550    4.5190   14.2930 C   0  0  0  0  0  3  0  0  0  0  0  0
   30.6950    3.6120   13.4070 C   0  0  0  0  0  2  0  0  0  0  0  0
   30.8530    1.5560   12.0440 C   0  0  0  0  0  2  0  0  0  0  0  0
   30.7550    2.3020   10.7220 C   0  0  0  0  0  3  0  0  0  0  0  0
   31.8970    2.8040   10.1010 C   0  0  0  0  0  2  0  0  0  0  0  0
   31.8350    3.4850    8.8880 C   0  0  0  0  0  3  0  0  0  0  0  0
   30.5980    3.6510    8.2760 C   0  0  0  0  0  2  0  0  0  0  0  0
   29.4530    3.1500    8.8730 C   0  0  0  0  0  2  0  0  0  0  0  0
   29.5320    2.4760   10.0880 C   0  0  0  0  0  2  0  0  0  0  0  0
   33.0880    4.0120    8.2330 C   0  0  0  0  0  3  0  0  0  0  0  0
   34.1740    2.9380    8.1630 C   0  0  0  0  0  1  0  0  0  0  0  0
   30.8770    5.8680   14.6120 C   0  0  0  0  0  3  0  0  0  0  0  0
   33.6140    5.2380    8.9270 C   0  0  0  0  0  1  0  0  0  0  0  0
   25.9420    5.2550   15.2240 C   0  0  0  0  0  1  0  0  0  0  0  0
   27.4550    7.9080   16.3800 C   0  0  0  0  0  1  0  0  0  0  0  0
   31.8510    6.8020   15.3150 C   0  0  0  0  0  2  0  0  0  0  0  0
   27.2650    6.5460   16.9010 N   0  0  0  0  0  0  0  0  0  0  0  0
   29.6810    5.6900   15.4430 N   0  0  0  0  0  2  0  0  0  0  0  0
   31.4210    2.3360   13.1620 N   0  0  0  0  0  2  0  0  0  0  0  0
   26.9230    5.1100   18.6070 O   0  0  0  0  0  1  0  0  0  0  0  0
   32.8160    4.7320   13.6440 O   0  0  0  0  0  1  0  0  0  0  0  0
   28.1960    5.7170   13.7330 O   0  0  0  0  0  1  0  0  0  0  0  0
  1  2  1  0
  1 13  1  0
  1 29  1  0
  2  3  1  0
  3  5  1  0
  4 12  1  0
  4 27  1  0
  4 30  1  0
  5  6  1  0
  6  7  1  0
  7  8  1  0
  8  9  1  0
  9 10  1  0
 10 11  1  0
 11 30  1  0
 11 33  1  0
 12 31  1  0
 12 35  1  0
 14 15  1  0
 14 25  1  0
 14 34  1  0
 15 32  1  0
 16 17  1  0
 16 32  1  0
 17 18  1  0
 17 22  1  0
 18 19  1  0
 19 20  1  0
 19 23  1  0
 20 21  1  0
 21 22  1  0
 23 24  1  0
 23 26  1  0
 25 29  1  0
 25 31  1  0
 28 30  1  0
M  END
$$$$
