5qdc_B_E77_402
     RDKit          3D

 32 34  0  0  0  0  0  0  0  0999 V2000
   17.2680    5.2720  -19.8020 C   0  0  0  0  0  3  0  0  0  0  0  0
   18.2460    4.1320  -19.8210 C   0  0  0  0  0  3  0  0  0  0  0  0
   18.7220    3.6430  -18.6090 C   0  0  0  0  0  2  0  0  0  0  0  0
   19.6160    2.5810  -18.6010 C   0  0  0  0  0  3  0  0  0  0  0  0
   20.0230    1.9710  -19.7780 C   0  0  0  0  0  2  0  0  0  0  0  0
   17.5360    8.6660  -20.6940 C   0  0  0  0  0  2  0  0  0  0  0  0
   19.5250    2.4280  -20.9940 C   0  0  0  0  0  3  0  0  0  0  0  0
   18.6370    3.5210  -21.0140 C   0  0  0  0  0  2  0  0  0  0  0  0
   19.9910    1.7650  -22.2640 C   0  0  0  0  0  3  0  0  0  0  0  0
   17.8100    0.5800  -22.4390 C   0  0  0  0  0  1  0  0  0  0  0  0
   19.5600    0.2410  -24.1340 C   0  0  0  0  0  1  0  0  0  0  0  0
   19.1510    1.8840  -16.3580 C   0  0  0  0  0  2  0  0  0  0  0  0
   19.7380    2.4470  -15.1190 C   0  0  0  0  0  2  0  0  0  0  0  0
   18.7540    2.5430  -13.9890 C   0  0  0  0  0  2  0  0  0  0  0  0
   18.0650    3.8740  -13.9480 C   0  0  0  0  0  2  0  0  0  0  0  0
   16.0350    4.3680  -15.1370 C   0  0  0  0  0  3  0  0  0  0  0  0
   16.4960    5.5600  -15.6880 C   0  0  0  0  0  2  0  0  0  0  0  0
   17.2100    8.7320  -19.2180 C   0  0  0  0  0  3  0  0  0  0  0  0
   15.7270    6.2310  -16.6400 C   0  0  0  0  0  3  0  0  0  0  0  0
   14.5110    5.6830  -17.0180 C   0  0  0  0  0  2  0  0  0  0  0  0
   14.0650    4.4950  -16.4700 C   0  0  0  0  0  2  0  0  0  0  0  0
   14.8200    3.8310  -15.5220 C   0  0  0  0  0  2  0  0  0  0  0  0
   16.2080    7.5320  -17.2390 C   0  0  0  0  0  2  0  0  0  0  0  0
   16.5840    7.4070  -18.7260 C   0  0  0  0  0  3  0  0  0  0  0  0
   17.4860    6.2550  -18.9020 N   0  0  0  0  0  2  0  0  0  0  0  0
   19.1510    0.9080  -22.8990 N   0  0  0  0  0  0  0  0  0  0  0  0
   16.3220    8.4660  -21.4620 O   0  0  0  0  0  1  0  0  0  0  0  0
   21.1100    1.9970  -22.6830 O   0  0  0  0  0  1  0  0  0  0  0  0
   20.0940    2.1280  -17.4030 O   0  0  0  0  0  0  0  0  0  0  0  0
   16.6840    3.6200  -14.1900 O   0  0  0  0  0  0  0  0  0  0  0  0
   16.3130    5.2930  -20.5730 O   0  0  0  0  0  1  0  0  0  0  0  0
   18.3990    9.0470  -18.4930 O   0  0  0  0  0  1  0  0  0  0  0  0
  1  2  1  0
  1 25  1  0
  1 31  1  0
  2  3  1  0
  2  8  1  0
  3  4  1  0
  4  5  1  0
  4 29  1  0
  5  7  1  0
  6 18  1  0
  6 27  1  0
  7  8  1  0
  7  9  1  0
  9 26  1  0
  9 28  1  0
 10 26  1  0
 11 26  1  0
 12 13  1  0
 12 29  1  0
 13 14  1  0
 14 15  1  0
 15 30  1  0
 16 17  1  0
 16 22  1  0
 16 30  1  0
 17 19  1  0
 18 24  1  0
 18 32  1  0
 19 20  1  0
 19 23  1  0
 20 21  1  0
 21 22  1  0
 23 24  1  0
 24 25  1  0
M  END
$$$$
