5qdc_A_E77_402
     RDKit          3D

 32 34  0  0  0  0  0  0  0  0999 V2000
   29.2370    6.2840   15.3540 C   0  0  0  0  0  3  0  0  0  0  0  0
   28.1450    6.1780   16.3760 C   0  0  0  0  0  3  0  0  0  0  0  0
   28.3870    6.5960   17.6810 C   0  0  0  0  0  2  0  0  0  0  0  0
   27.3820    6.4910   18.6300 C   0  0  0  0  0  3  0  0  0  0  0  0
   26.1280    6.0050   18.2950 C   0  0  0  0  0  2  0  0  0  0  0  0
   31.1320    3.9750   13.8100 C   0  0  0  0  0  2  0  0  0  0  0  0
   25.8730    5.6090   16.9840 C   0  0  0  0  0  3  0  0  0  0  0  0
   26.8890    5.6870   16.0270 C   0  0  0  0  0  2  0  0  0  0  0  0
   24.5390    5.0380   16.6100 C   0  0  0  0  0  3  0  0  0  0  0  0
   23.8590    7.2480   15.7130 C   0  0  0  0  0  1  0  0  0  0  0  0
   22.3280    5.3080   15.6150 C   0  0  0  0  0  1  0  0  0  0  0  0
   28.3120    8.1530   20.1150 C   0  0  0  0  0  2  0  0  0  0  0  0
   29.3540    7.9430   21.1530 C   0  0  0  0  0  2  0  0  0  0  0  0
   30.3170    9.0970   21.2890 C   0  0  0  0  0  2  0  0  0  0  0  0
   31.4690    9.0410   20.3210 C   0  0  0  0  0  2  0  0  0  0  0  0
   31.4740    9.6890   18.0010 C   0  0  0  0  0  3  0  0  0  0  0  0
   31.9670    8.4620   17.5560 C   0  0  0  0  0  2  0  0  0  0  0  0
   32.2100    4.7450   14.5530 C   0  0  0  0  0  3  0  0  0  0  0  0
   32.2290    8.2650   16.2000 C   0  0  0  0  0  3  0  0  0  0  0  0
   31.9760    9.3040   15.3170 C   0  0  0  0  0  2  0  0  0  0  0  0
   31.4830   10.5180   15.7670 C   0  0  0  0  0  2  0  0  0  0  0  0
   31.2310   10.7200   17.1120 C   0  0  0  0  0  2  0  0  0  0  0  0
   32.7600    6.9420   15.6990 C   0  0  0  0  0  2  0  0  0  0  0  0
   31.6810    6.1330   14.9490 C   0  0  0  0  0  3  0  0  0  0  0  0
   30.4870    6.0440   15.7930 N   0  0  0  0  0  2  0  0  0  0  0  0
   23.6340    5.8360   16.0090 N   0  0  0  0  0  0  0  0  0  0  0  0
   30.9120    4.5410   12.4990 O   0  0  0  0  0  1  0  0  0  0  0  0
   24.3130    3.8650   16.8410 O   0  0  0  0  0  1  0  0  0  0  0  0
   27.6420    6.8850   19.9170 O   0  0  0  0  0  0  0  0  0  0  0  0
   31.1820   10.0030   19.2980 O   0  0  0  0  0  0  0  0  0  0  0  0
   28.9850    6.5440   14.1800 O   0  0  0  0  0  1  0  0  0  0  0  0
   32.6060    4.0040   15.7160 O   0  0  0  0  0  1  0  0  0  0  0  0
  1  2  1  0
  1 25  1  0
  1 31  1  0
  2  3  1  0
  2  8  1  0
  3  4  1  0
  4  5  1  0
  4 29  1  0
  5  7  1  0
  6 18  1  0
  6 27  1  0
  7  8  1  0
  7  9  1  0
  9 26  1  0
  9 28  1  0
 10 26  1  0
 11 26  1  0
 12 13  1  0
 12 29  1  0
 13 14  1  0
 14 15  1  0
 15 30  1  0
 16 17  1  0
 16 22  1  0
 16 30  1  0
 17 19  1  0
 18 24  1  0
 18 32  1  0
 19 20  1  0
 19 23  1  0
 20 21  1  0
 21 22  1  0
 23 24  1  0
 24 25  1  0
M  END
$$$$
