5qdd_B_E7A_402
     RDKit          3D

 30 31  0  0  0  0  0  0  0  0999 V2000
   17.1190    5.3200  -19.5150 C   0  0  0  0  0  3  0  0  0  0  0  0
   18.0910    4.1810  -19.5690 C   0  0  0  0  0  3  0  0  0  0  0  0
   18.6370    3.6870  -18.3880 C   0  0  0  0  0  2  0  0  0  0  0  0
   19.5380    2.6320  -18.4420 C   0  0  0  0  0  3  0  0  0  0  0  0
   19.8820    2.0420  -19.6490 C   0  0  0  0  0  2  0  0  0  0  0  0
   17.3970    8.7540  -20.3180 C   0  0  0  0  0  2  0  0  0  0  0  0
   19.3150    2.5090  -20.8310 C   0  0  0  0  0  3  0  0  0  0  0  0
   18.4260    3.5840  -20.7920 C   0  0  0  0  0  2  0  0  0  0  0  0
   19.7130    1.8860  -22.1410 C   0  0  0  0  0  3  0  0  0  0  0  0
   17.6900    0.4570  -22.0740 C   0  0  0  0  0  1  0  0  0  0  0  0
   19.2770    0.3090  -23.9470 C   0  0  0  0  0  1  0  0  0  0  0  0
   19.8490    2.7780  -16.0570 C   0  0  0  0  0  2  0  0  0  0  0  0
   18.8010    1.9820  -15.3070 C   0  0  0  0  0  2  0  0  0  0  0  0
   18.4770    2.5840  -13.9450 C   0  0  0  0  0  2  0  0  0  0  0  0
   17.6180    3.8470  -14.0060 C   0  0  0  0  0  2  0  0  0  0  0  0
   16.2420    3.6300  -14.6480 C   0  0  0  0  0  2  0  0  0  0  0  0
   17.0940    8.7830  -18.8260 C   0  0  0  0  0  3  0  0  0  0  0  0
   15.2050    4.6900  -14.2920 C   0  0  0  0  0  2  0  0  0  0  0  0
   15.5060    6.0600  -14.8680 C   0  0  0  0  0  2  0  0  0  0  0  0
   15.5820    6.1070  -16.3910 C   0  0  0  0  0  3  0  0  0  0  0  0
   16.0030    7.4910  -16.9260 C   0  0  0  0  0  2  0  0  0  0  0  0
   14.2600    5.6590  -17.0050 C   0  0  0  0  0  1  0  0  0  0  0  0
   16.4590    7.4480  -18.3920 C   0  0  0  0  0  3  0  0  0  0  0  0
   17.3570    6.2940  -18.6020 N   0  0  0  0  0  2  0  0  0  0  0  0
   18.9210    0.9390  -22.6780 N   0  0  0  0  0  0  0  0  0  0  0  0
   16.1180    8.6790  -21.0770 O   0  0  0  0  0  1  0  0  0  0  0  0
   20.7410    2.2460  -22.6810 O   0  0  0  0  0  1  0  0  0  0  0  0
   20.1170    2.1250  -17.3090 O   0  0  0  0  0  0  0  0  0  0  0  0
   16.1600    5.3630  -20.2820 O   0  0  0  0  0  1  0  0  0  0  0  0
   18.2790    9.0740  -18.0730 O   0  0  0  0  0  1  0  0  0  0  0  0
  1  2  1  0
  1 24  1  0
  1 29  1  0
  2  3  1  0
  2  8  1  0
  3  4  1  0
  4  5  1  0
  4 28  1  0
  5  7  1  0
  6 17  1  0
  6 26  1  0
  7  8  1  0
  7  9  1  0
  9 25  1  0
  9 27  1  0
 10 25  1  0
 11 25  1  0
 12 13  1  0
 12 28  1  0
 13 14  1  0
 14 15  1  0
 15 16  1  0
 16 18  1  0
 17 23  1  0
 17 30  1  0
 18 19  1  0
 19 20  1  0
 20 21  1  0
 20 22  1  0
 21 23  1  0
 23 24  1  0
M  END
$$$$
