5qdd_A_E7A_402
     RDKit          3D

 30 31  0  0  0  0  0  0  0  0999 V2000
   28.8930    6.4630   15.4050 C   0  0  0  0  0  3  0  0  0  0  0  0
   27.7940    6.3110   16.4100 C   0  0  0  0  0  3  0  0  0  0  0  0
   28.0510    6.6580   17.7330 C   0  0  0  0  0  2  0  0  0  0  0  0
   27.0470    6.5160   18.6870 C   0  0  0  0  0  3  0  0  0  0  0  0
   25.7860    6.0620   18.3390 C   0  0  0  0  0  2  0  0  0  0  0  0
   30.9390    4.1120   13.7900 C   0  0  0  0  0  2  0  0  0  0  0  0
   25.5110    5.7400   17.0100 C   0  0  0  0  0  3  0  0  0  0  0  0
   26.5180    5.8520   16.0470 C   0  0  0  0  0  2  0  0  0  0  0  0
   24.1560    5.2000   16.6550 C   0  0  0  0  0  3  0  0  0  0  0  0
   23.5480    7.3640   15.6050 C   0  0  0  0  0  1  0  0  0  0  0  0
   21.9620    5.4750   15.6380 C   0  0  0  0  0  1  0  0  0  0  0  0
   28.6510    7.2000   20.3560 C   0  0  0  0  0  2  0  0  0  0  0  0
   28.7130    8.7310   20.5300 C   0  0  0  0  0  2  0  0  0  0  0  0
   30.0740    9.2350   21.0470 C   0  0  0  0  0  2  0  0  0  0  0  0
   31.1910    9.2710   19.9970 C   0  0  0  0  0  2  0  0  0  0  0  0
   30.8230   10.0100   18.7240 C   0  0  0  0  0  2  0  0  0  0  0  0
   31.9510    4.9280   14.5840 C   0  0  0  0  0  3  0  0  0  0  0  0
   32.0060   10.4040   17.8660 C   0  0  0  0  0  2  0  0  0  0  0  0
   32.6400    9.2380   17.1530 C   0  0  0  0  0  2  0  0  0  0  0  0
   31.7200    8.5100   16.1900 C   0  0  0  0  0  3  0  0  0  0  0  0
   32.3600    7.2090   15.6600 C   0  0  0  0  0  2  0  0  0  0  0  0
   31.3020    9.4190   15.0480 C   0  0  0  0  0  1  0  0  0  0  0  0
   31.3420    6.2900   14.9750 C   0  0  0  0  0  3  0  0  0  0  0  0
   30.1440    6.1520   15.8220 N   0  0  0  0  0  2  0  0  0  0  0  0
   23.2870    5.9890   16.0020 N   0  0  0  0  0  0  0  0  0  0  0  0
   30.8080    4.6670   12.4200 O   0  0  0  0  0  1  0  0  0  0  0  0
   23.8780    4.0570   16.9680 O   0  0  0  0  0  1  0  0  0  0  0  0
   27.3000    6.8260   19.9960 O   0  0  0  0  0  0  0  0  0  0  0  0
   28.6540    6.8360   14.2590 O   0  0  0  0  0  1  0  0  0  0  0  0
   32.4080    4.1990   15.7260 O   0  0  0  0  0  1  0  0  0  0  0  0
  1  2  1  0
  1 24  1  0
  1 29  1  0
  2  3  1  0
  2  8  1  0
  3  4  1  0
  4  5  1  0
  4 28  1  0
  5  7  1  0
  6 17  1  0
  6 26  1  0
  7  8  1  0
  7  9  1  0
  9 25  1  0
  9 27  1  0
 10 25  1  0
 11 25  1  0
 12 13  1  0
 12 28  1  0
 13 14  1  0
 14 15  1  0
 15 16  1  0
 16 18  1  0
 17 23  1  0
 17 30  1  0
 18 19  1  0
 19 20  1  0
 20 21  1  0
 20 22  1  0
 21 23  1  0
 23 24  1  0
M  END
$$$$
