5t1w_A_74B_401
     RDKit          3D

 28 30  0  0  0  0  0  0  0  0999 V2000
   19.8760  -38.6420    7.0260 C   0  0  0  0  0  2  0  0  0  0  0  0
   16.2820  -38.6540   10.4920 C   0  0  0  0  0  2  0  0  0  0  0  0
   17.5630  -39.0100    9.7230 C   0  0  0  0  0  3  0  0  0  0  0  0
   17.5700  -40.4590    9.2420 C   0  0  0  0  0  2  0  0  0  0  0  0
   16.3780  -39.1400    7.0530 C   0  0  0  0  0  3  0  0  0  0  0  0
   14.8160  -36.8010   11.2760 C   0  0  0  0  0  2  0  0  0  0  0  0
   21.7000  -39.5410    5.5280 C   0  0  0  0  0  2  0  0  0  0  0  0
   21.1980  -41.9460    5.0800 C   0  0  0  0  0  2  0  0  0  0  0  0
   22.1200  -42.1460    3.8350 C   0  0  0  0  0  0  0  0  0  0  0  0
   21.2280  -38.9010    6.8060 C   0  0  0  0  0  3  0  0  0  0  0  0
   22.1220  -38.6270    7.8210 C   0  0  0  0  0  3  0  0  0  0  0  0
   21.7350  -38.0870    9.0190 C   0  0  0  0  0  2  0  0  0  0  0  0
   20.3980  -37.8460    9.1960 C   0  0  0  0  0  3  0  0  0  0  0  0
   19.4280  -38.1340    8.2450 C   0  0  0  0  0  3  0  0  0  0  0  0
   17.9180  -37.9920    8.5550 C   0  0  0  0  0  0  0  0  0  0  0  0
   17.6100  -36.5120    8.9850 C   0  0  0  0  0  2  0  0  0  0  0  0
   16.2150  -37.1750   10.8150 C   0  0  0  0  0  3  0  0  0  0  0  0
   14.8690  -35.4800   11.6210 F   0  0  0  0  0  0  0  0  0  0  0  0
   20.0150  -37.2350   10.3410 F   0  0  0  0  0  0  0  0  0  0  0  0
   23.4210  -38.9790    7.6510 F   0  0  0  0  0  0  0  0  0  0  0  0
   23.2750  -41.5060    3.9740 F   0  0  0  0  0  0  0  0  0  0  0  0
   22.4230  -43.4190    3.6350 F   0  0  0  0  0  0  0  0  0  0  0  0
   21.5370  -41.7210    2.7060 F   0  0  0  0  0  0  0  0  0  0  0  0
   17.0260  -38.0580    7.3860 N   0  0  0  0  0  2  0  0  0  0  0  0
   15.5620  -39.1720    5.9990 N   0  0  0  0  0  1  0  0  0  0  0  0
   20.7790  -40.5500    5.0090 N   0  0  0  0  0  2  0  0  0  0  0  0
   16.3290  -36.4100    9.6190 O   0  0  0  0  0  0  0  0  0  0  0  0
   16.4730  -40.7500    7.8360 S   0  0  0  0  0  0  0  0  0  0  0  0
  1 10  1  0
  1 14  1  0
  2  3  1  0
  2 17  1  0
  3  4  1  0
  3 15  1  0
  4 28  1  0
  5 24  1  0
  5 25  1  0
  5 28  1  0
  6 17  1  0
  6 18  1  0
  7 10  1  0
  7 26  1  0
  8  9  1  0
  8 26  1  0
  9 21  1  0
  9 22  1  0
  9 23  1  0
 10 11  1  0
 11 12  1  0
 11 20  1  0
 12 13  1  0
 13 14  1  0
 13 19  1  0
 14 15  1  0
 15 16  1  0
 15 24  1  0
 16 27  1  0
 17 27  1  0
M  END
$$$$
