5v0n_B_8W4_406
     RDKit          3D

 47 52  0  0  0  0  0  0  0  0999 V2000
    7.4040  -23.9090   68.5210 C   0  0  0  0  0  0  0  0  0  0  0  0
    6.0920  -24.3950   67.9210 C   0  0  0  0  0  1  0  0  0  0  0  0
    7.7780  -24.9390   69.6440 C   0  0  0  0  0  1  0  0  0  0  0  0
    8.3330  -24.0160   67.4590 C   0  0  0  0  0  2  0  0  0  0  0  0
    9.2480  -23.0300   65.3730 C   0  0  0  0  0  2  0  0  0  0  0  0
    9.9320  -21.9200   64.9410 C   0  0  0  0  0  3  0  0  0  0  0  0
   10.3750  -21.6960   63.7070 C   0  0  0  0  0  2  0  0  0  0  0  0
    9.6340  -20.6230   62.8690 C   0  0  0  0  0  1  0  0  0  0  0  0
    9.4950  -21.6680   67.1880 C   0  0  0  0  0  3  0  0  0  0  0  0
   10.0940  -21.0330   66.0770 C   0  0  0  0  0  3  0  0  0  0  0  0
   10.7220  -19.7910   66.2370 C   0  0  0  0  0  2  0  0  0  0  0  0
   10.7090  -19.1390   67.4560 C   0  0  0  0  0  3  0  0  0  0  0  0
   11.4420  -17.9090   67.6620 C   0  0  0  0  0  3  0  0  0  0  0  0
   12.2580  -15.8030   66.7430 C   0  0  0  0  0  3  0  0  0  0  0  0
   12.7500  -15.6840   65.2850 C   0  0  0  0  0  2  0  0  0  0  0  0
   13.1310  -17.0450   64.6900 C   0  0  0  0  0  3  0  0  0  0  0  0
   12.5540  -17.5010   63.5080 C   0  0  0  0  0  2  0  0  0  0  0  0
   12.8840  -18.7130   62.9400 C   0  0  0  0  0  2  0  0  0  0  0  0
   13.8070  -19.5530   63.5200 C   0  0  0  0  0  2  0  0  0  0  0  0
   14.4240  -19.1250   64.7280 C   0  0  0  0  0  2  0  0  0  0  0  0
   14.0890  -17.8910   65.2840 C   0  0  0  0  0  2  0  0  0  0  0  0
   11.5790  -14.5410   67.2350 C   0  0  0  0  0  3  0  0  0  0  0  0
   11.1880  -14.4770   68.7230 C   0  0  0  0  0  3  0  0  0  0  0  0
   10.2480  -12.8900   70.2790 C   0  0  0  0  0  2  0  0  0  0  0  0
   11.5490  -12.5380   70.8820 C   0  0  0  0  0  2  0  0  0  0  0  0
   13.8540  -13.4000   71.3840 C   0  0  0  0  0  2  0  0  0  0  0  0
   14.5040  -12.1240   71.0900 C   0  0  0  0  0  3  0  0  0  0  0  0
   15.2320  -11.9740   69.8760 C   0  0  0  0  0  2  0  0  0  0  0  0
   15.8040  -10.7590   69.5890 C   0  0  0  0  0  2  0  0  0  0  0  0
   15.6750   -9.6730   70.4520 C   0  0  0  0  0  2  0  0  0  0  0  0
   14.9570   -9.8140   71.6510 C   0  0  0  0  0  2  0  0  0  0  0  0
   14.3680  -11.0380   71.9360 C   0  0  0  0  0  2  0  0  0  0  0  0
   12.5150  -14.4560   69.5730 C   0  0  0  0  0  3  0  0  0  0  0  0
   10.1170  -19.7920   68.5770 C   0  0  0  0  0  2  0  0  0  0  0  0
    9.5230  -21.0430   68.4560 C   0  0  0  0  0  3  0  0  0  0  0  0
    9.1610  -21.6500   70.8590 C   0  0  0  0  0  1  0  0  0  0  0  0
    8.9590  -22.9240   66.7340 N   0  0  0  0  0  0  0  0  0  0  0  0
   11.4400  -16.9470   66.7450 N   0  0  0  0  0  2  0  0  0  0  0  0
   10.3620  -13.2990   68.8910 N   0  0  0  0  0  2  0  0  0  0  0  0
   12.6170  -13.5090   70.5500 N   0  0  0  0  0  0  0  0  0  0  0  0
    8.8010  -21.6360   69.4360 N   0  0  0  0  0  0  0  0  0  0  0  0
    6.6520  -21.5350   68.0480 O   0  0  0  0  0  1  0  0  0  0  0  0
   12.4950  -13.5000   66.9820 O   0  0  0  0  0  1  0  0  0  0  0  0
   13.4270  -15.2180   69.3610 O   0  0  0  0  0  1  0  0  0  0  0  0
   12.2200  -17.8820   68.6290 O   0  0  0  0  0  1  0  0  0  0  0  0
    6.4750  -22.3590   70.3200 O   0  0  0  0  0  1  0  0  0  0  0  0
    7.2410  -22.2840   69.1380 S   0  0  0  0  0  4  0  0  0  0  0  0
  1  2  1  0
  1  3  1  0
  1  4  1  0
  1 47  1  0
  4 37  1  0
  5  6  1  0
  5 37  1  0
  6  7  1  0
  6 10  1  0
  7  8  1  0
  9 10  1  0
  9 35  1  0
  9 37  1  0
 10 11  1  0
 11 12  1  0
 12 13  1  0
 12 34  1  0
 13 38  1  0
 13 45  1  0
 14 15  1  0
 14 22  1  0
 14 38  1  0
 15 16  1  0
 16 17  1  0
 16 21  1  0
 17 18  1  0
 18 19  1  0
 19 20  1  0
 20 21  1  0
 22 23  1  0
 22 43  1  0
 23 33  1  0
 23 39  1  0
 24 25  1  0
 24 39  1  0
 25 40  1  0
 26 27  1  0
 26 40  1  0
 27 28  1  0
 27 32  1  0
 28 29  1  0
 29 30  1  0
 30 31  1  0
 31 32  1  0
 33 40  1  0
 33 44  1  0
 34 35  1  0
 35 41  1  0
 36 41  1  0
 41 47  1  0
 42 47  1  0
 46 47  1  0
M  END
$$$$
