5v0n_C_8W4_405
     RDKit          3D

 47 52  0  0  0  0  0  0  0  0999 V2000
   35.9920   -6.0350   97.4770 C   0  0  0  0  0  0  0  0  0  0  0  0
   35.3940   -5.0660   96.5170 C   0  0  0  0  0  1  0  0  0  0  0  0
   36.2130   -5.2320   98.7000 C   0  0  0  0  0  1  0  0  0  0  0  0
   34.9440   -6.9550   97.7300 C   0  0  0  0  0  2  0  0  0  0  0  0
   33.5450   -8.7720   96.7710 C   0  0  0  0  0  2  0  0  0  0  0  0
   33.6560  -10.1000   96.4130 C   0  0  0  0  0  3  0  0  0  0  0  0
   32.6560  -10.8880   95.9720 C   0  0  0  0  0  2  0  0  0  0  0  0
   32.7670  -11.4780   94.5470 C   0  0  0  0  0  1  0  0  0  0  0  0
   35.7220   -9.3560   97.1310 C   0  0  0  0  0  3  0  0  0  0  0  0
   35.0540  -10.4870   96.6460 C   0  0  0  0  0  3  0  0  0  0  0  0
   35.7510  -11.6560   96.4950 C   0  0  0  0  0  2  0  0  0  0  0  0
   37.1390  -11.7370   96.7570 C   0  0  0  0  0  3  0  0  0  0  0  0
   37.7890  -12.9710   96.7360 C   0  0  0  0  0  3  0  0  0  0  0  0
   37.9920  -15.2820   95.8630 C   0  0  0  0  0  3  0  0  0  0  0  0
   36.7710  -16.1420   95.4280 C   0  0  0  0  0  2  0  0  0  0  0  0
   35.4630  -15.6910   96.0500 C   0  0  0  0  0  3  0  0  0  0  0  0
   34.3920  -15.2970   95.2340 C   0  0  0  0  0  2  0  0  0  0  0  0
   33.2030  -14.8500   95.7580 C   0  0  0  0  0  2  0  0  0  0  0  0
   33.0100  -14.7810   97.1210 C   0  0  0  0  0  2  0  0  0  0  0  0
   34.0480  -15.1950   97.9720 C   0  0  0  0  0  2  0  0  0  0  0  0
   35.2660  -15.6260   97.4330 C   0  0  0  0  0  2  0  0  0  0  0  0
   39.2580  -15.5900   95.0560 C   0  0  0  0  0  3  0  0  0  0  0  0
   40.5980  -14.9400   95.5680 C   0  0  0  0  0  3  0  0  0  0  0  0
   42.8700  -14.7620   94.8940 C   0  0  0  0  0  2  0  0  0  0  0  0
   43.3740  -15.6670   95.9690 C   0  0  0  0  0  2  0  0  0  0  0  0
   42.8730  -16.5820   98.2050 C   0  0  0  0  0  2  0  0  0  0  0  0
   43.1440  -18.0330   97.8610 C   0  0  0  0  0  3  0  0  0  0  0  0
   42.0860  -18.9390   97.6950 C   0  0  0  0  0  2  0  0  0  0  0  0
   42.3240  -20.2600   97.3610 C   0  0  0  0  0  2  0  0  0  0  0  0
   43.5680  -20.7320   97.1640 C   0  0  0  0  0  2  0  0  0  0  0  0
   44.6380  -19.8680   97.3320 C   0  0  0  0  0  2  0  0  0  0  0  0
   44.4200  -18.5310   97.6760 C   0  0  0  0  0  2  0  0  0  0  0  0
   41.0210  -15.6090   96.8780 C   0  0  0  0  0  3  0  0  0  0  0  0
   37.7800  -10.6190   97.2750 C   0  0  0  0  0  2  0  0  0  0  0  0
   37.0890   -9.4160   97.4530 C   0  0  0  0  0  3  0  0  0  0  0  0
   38.7490   -8.1400   98.8350 C   0  0  0  0  0  1  0  0  0  0  0  0
   34.7840   -8.2710   97.1790 N   0  0  0  0  0  0  0  0  0  0  0  0
   37.5400  -13.8930   95.7930 N   0  0  0  0  0  2  0  0  0  0  0  0
   41.5420  -15.1280   94.4850 N   0  0  0  0  0  2  0  0  0  0  0  0
   42.3860  -15.9110   96.9910 N   0  0  0  0  0  0  0  0  0  0  0  0
   37.7010   -8.2280   97.7920 N   0  0  0  0  0  0  0  0  0  0  0  0
   37.1400   -7.0830   95.5320 O   0  0  0  0  0  1  0  0  0  0  0  0
   39.4360  -17.0030   95.0370 O   0  0  0  0  0  1  0  0  0  0  0  0
   40.2290  -15.8370   97.7970 O   0  0  0  0  0  1  0  0  0  0  0  0
   38.3780  -13.2930   97.7960 O   0  0  0  0  0  1  0  0  0  0  0  0
   38.4900   -5.7730   97.0930 O   0  0  0  0  0  1  0  0  0  0  0  0
   37.4750   -6.7560   96.9210 S   0  0  0  0  0  4  0  0  0  0  0  0
  1  2  1  0
  1  3  1  0
  1  4  1  0
  1 47  1  0
  4 37  1  0
  5  6  1  0
  5 37  1  0
  6  7  1  0
  6 10  1  0
  7  8  1  0
  9 10  1  0
  9 35  1  0
  9 37  1  0
 10 11  1  0
 11 12  1  0
 12 13  1  0
 12 34  1  0
 13 38  1  0
 13 45  1  0
 14 15  1  0
 14 22  1  0
 14 38  1  0
 15 16  1  0
 16 17  1  0
 16 21  1  0
 17 18  1  0
 18 19  1  0
 19 20  1  0
 20 21  1  0
 22 23  1  0
 22 43  1  0
 23 33  1  0
 23 39  1  0
 24 25  1  0
 24 39  1  0
 25 40  1  0
 26 27  1  0
 26 40  1  0
 27 28  1  0
 27 32  1  0
 28 29  1  0
 29 30  1  0
 30 31  1  0
 31 32  1  0
 33 40  1  0
 33 44  1  0
 34 35  1  0
 35 41  1  0
 36 41  1  0
 41 47  1  0
 42 47  1  0
 46 47  1  0
M  END
$$$$
