5ygx_A_0B5_509
     RDKit          3D

 32 34  0  0  0  0  0  0  0  0999 V2000
   17.3080   36.7550   -8.9810 C   0  0  0  0  0  1  0  0  0  0  0  0
   17.3240   38.2170   -8.5720 C   0  0  0  0  0  0  0  0  0  0  0  0
   21.5210   40.8810   -4.9150 C   0  0  0  0  0  3  0  0  0  0  0  0
   21.3220   41.6050   -3.6130 C   0  0  0  0  0  3  0  0  0  0  0  0
   19.9380   42.0010   -1.7420 C   0  0  0  0  0  2  0  0  0  0  0  0
   20.8850   42.8940   -1.2450 C   0  0  0  0  0  3  0  0  0  0  0  0
   21.5730   44.3200    0.6240 C   0  0  0  0  0  2  0  0  0  0  0  0
   22.2830   42.5050   -3.1250 C   0  0  0  0  0  2  0  0  0  0  0  0
   21.3740   39.5080   -7.5930 C   0  0  0  0  0  2  0  0  0  0  0  0
   21.1670   38.9140   -8.8390 C   0  0  0  0  0  2  0  0  0  0  0  0
   19.8960   38.4780   -9.1910 C   0  0  0  0  0  3  0  0  0  0  0  0
   16.8230   39.0850   -9.7260 C   0  0  0  0  0  3  0  0  0  0  0  0
   16.5710   40.5250   -9.2720 C   0  0  0  0  0  3  0  0  0  0  0  0
   16.0020   41.5170  -10.2930 C   0  0  0  0  0  0  0  0  0  0  0  0
   14.5230   41.3130  -10.6370 C   0  0  0  0  0  1  0  0  0  0  0  0
   15.7260   39.4490   -7.2050 C   0  0  0  0  0  3  0  0  0  0  0  0
   18.7490   38.6500   -8.2380 C   0  0  0  0  0  3  0  0  0  0  0  0
   19.0410   39.2710   -7.0260 C   0  0  0  0  0  2  0  0  0  0  0  0
   20.3200   39.7080   -6.6940 C   0  0  0  0  0  3  0  0  0  0  0  0
   15.6410   38.5450  -10.1610 F   0  0  0  0  0  0  0  0  0  0  0  0
   16.7470   41.4480  -11.3880 F   0  0  0  0  0  0  0  0  0  0  0  0
   16.0960   42.7280   -9.7570 F   0  0  0  0  0  0  0  0  0  0  0  0
   22.6070   43.5310    1.0800 F   0  0  0  0  0  0  0  0  0  0  0  0
   19.7100   37.9100  -10.3840 F   0  0  0  0  0  0  0  0  0  0  0  0
   14.8760   39.5470   -6.1790 N   0  0  0  0  0  1  0  0  0  0  0  0
   16.4260   38.3980   -7.4200 N   0  0  0  0  0  2  0  0  0  0  0  0
   20.4560   40.2850   -5.4630 N   0  0  0  0  0  2  0  0  0  0  0  0
   20.1800   41.3730   -2.9050 N   0  0  0  0  0  2  0  0  0  0  0  0
   22.0490   43.1230   -1.9450 N   0  0  0  0  0  2  0  0  0  0  0  0
   15.8200   40.6140   -8.0550 O   0  0  0  0  0  0  0  0  0  0  0  0
   20.6130   43.5070   -0.0580 O   0  0  0  0  0  0  0  0  0  0  0  0
   22.6300   40.8720   -5.4090 O   0  0  0  0  0  1  0  0  0  0  0  0
  1  2  1  0
  2 12  1  0
  2 17  1  0
  2 26  1  0
  3  4  1  0
  3 27  1  0
  3 32  1  0
  4  8  1  0
  4 28  1  0
  5  6  1  0
  5 28  1  0
  6 29  1  0
  6 31  1  0
  7 23  1  0
  7 31  1  0
  8 29  1  0
  9 10  1  0
  9 19  1  0
 10 11  1  0
 11 17  1  0
 11 24  1  0
 12 13  1  0
 12 20  1  0
 13 14  1  0
 13 30  1  0
 14 15  1  0
 14 21  1  0
 14 22  1  0
 16 25  1  0
 16 26  1  0
 16 30  1  0
 17 18  1  0
 18 19  1  0
 19 27  1  0
M  END
$$$$
