6bfe_B_DJV_401
     RDKit          3D

 61 63  0  0  0  0  0  0  0  0999 V2000
   65.9370   33.5480   76.4820 C   0  0  0  0  0  3  0  0  0  0  0  0
   58.4280   36.1720   72.2110 C   0  0  0  0  0  0  0  0  0  0  0  0
   58.5950   33.2710   72.4600 C   0  0  0  0  0  0  0  0  0  0  0  0
   59.7240   35.4150   71.9490 C   0  0  0  0  0  0  0  0  0  0  0  0
   63.7880   33.3260   71.3970 C   0  0  0  0  0  0  0  0  0  0  0  0
   63.6380   34.2100   69.1670 C   0  0  0  0  0  0  0  0  0  0  0  0
   59.4470   34.0080   71.4350 C   0  0  0  0  0  0  0  0  0  0  0  0
   62.8950   33.3300   70.1580 C   0  0  0  0  0  0  0  0  0  0  0  0
   64.8920   34.3600   71.1080 C   0  0  0  0  0  0  0  0  0  0  0  0
   68.1300   31.5420   72.8820 C   0  0  0  0  0  0  0  0  0  0  0  0
   66.1680   35.3010   74.7000 C   0  0  0  0  0  0  0  0  0  0  0  0
   68.0520   34.6520   76.2560 C   0  0  0  0  0  3  0  0  0  0  0  0
   60.7120   33.2300   71.1590 C   0  0  0  0  0  0  0  0  0  0  0  0
   65.2570   35.2350   72.3380 C   0  0  0  0  0  0  0  0  0  0  0  0
   65.7410   34.4120   73.5180 C   0  0  0  0  0  0  0  0  0  0  0  0
   67.7550   32.9360   77.9460 C   0  0  0  0  0  3  0  0  0  0  0  0
   66.7320   34.5010   75.8520 C   0  0  0  0  0  3  0  0  0  0  0  0
   66.4800   32.7810   77.4850 C   0  0  0  0  0  3  0  0  0  0  0  0
   68.5160   33.8770   77.2970 C   0  0  0  0  0  3  0  0  0  0  0  0
   66.8490   32.2290   73.2370 C   0  0  0  0  0  3  0  0  0  0  0  0
   57.5710   35.4360   73.2220 C   0  0  0  0  0  0  0  0  0  0  0  0
   57.2990   34.0170   72.7730 C   0  0  0  0  0  0  0  0  0  0  0  0
   65.7050   31.8040   78.0420 F   0  0  0  0  0  0  0  0  0  0  0  0
   69.7880   34.0800   77.7260 F   0  0  0  0  0  0  0  0  0  0  0  0
   64.8970   33.4400   76.1990 H   0  0  0  0  0  0  0  0  0  0  0  0
   59.1680   33.1830   73.3820 H   0  0  0  0  0  0  0  0  0  0  0  0
   58.3940   32.2490   72.1430 H   0  0  0  0  0  0  0  0  0  0  0  0
   60.3220   35.9880   71.2420 H   0  0  0  0  0  0  0  0  0  0  0  0
   60.3160   35.3710   72.8610 H   0  0  0  0  0  0  0  0  0  0  0  0
   63.2370   33.5450   72.3090 H   0  0  0  0  0  0  0  0  0  0  0  0
   64.2170   32.3430   71.5860 H   0  0  0  0  0  0  0  0  0  0  0  0
   64.2770   33.6190   68.5130 H   0  0  0  0  0  0  0  0  0  0  0  0
   62.9790   34.7630   68.5000 H   0  0  0  0  0  0  0  0  0  0  0  0
   58.8580   34.0890   70.5240 H   0  0  0  0  0  0  0  0  0  0  0  0
   62.7240   32.3220   69.7840 H   0  0  0  0  0  0  0  0  0  0  0  0
   68.7200   35.3460   75.7480 H   0  0  0  0  0  0  0  0  0  0  0  0
   65.7840   33.8150   70.8000 H   0  0  0  0  0  0  0  0  0  0  0  0
   68.9000   31.7600   73.6200 H   0  0  0  0  0  0  0  0  0  0  0  0
   67.9950   30.4630   72.8690 H   0  0  0  0  0  0  0  0  0  0  0  0
   68.5260   31.8140   71.9050 H   0  0  0  0  0  0  0  0  0  0  0  0
   65.3040   35.8670   75.0400 H   0  0  0  0  0  0  0  0  0  0  0  0
   66.8710   36.0710   74.3870 H   0  0  0  0  0  0  0  0  0  0  0  0
   60.4670   32.3270   70.6010 H   0  0  0  0  0  0  0  0  0  0  0  0
   61.1410   32.8860   72.0990 H   0  0  0  0  0  0  0  0  0  0  0  0
   66.0610   35.9160   72.0620 H   0  0  0  0  0  0  0  0  0  0  0  0
   64.9210   33.7870   73.8640 H   0  0  0  0  0  0  0  0  0  0  0  0
   68.1250   32.3760   78.8020 H   0  0  0  0  0  0  0  0  0  0  0  0
   65.0590   35.6420   69.4850 H   0  0  0  0  0  0  0  0  0  0  0  0
   67.6570   34.0520   72.7390 H   0  0  0  0  0  0  0  0  0  0  0  0
   64.1660   36.8130   72.1910 H   0  0  0  0  0  0  0  0  0  0  0  0
   56.6390   35.9650   73.4110 H   0  0  0  0  0  0  0  0  0  0  0  0
   58.0850   35.4300   74.1810 H   0  0  0  0  0  0  0  0  0  0  0  0
   56.7480   33.4830   73.5470 H   0  0  0  0  0  0  0  0  0  0  0  0
   56.6480   34.0180   71.9000 H   0  0  0  0  0  0  0  0  0  0  0  0
   57.8720   36.2920   71.2820 H   0  0  0  0  0  0  0  0  0  0  0  0
   58.6530   37.1890   72.5240 H   0  0  0  0  0  0  0  0  0  0  0  0
   64.3340   35.1720   70.0100 N   0  0  0  0  0  0  0  0  0  0  0  0
   66.8540   33.5590   73.1150 N   0  0  0  0  0  0  0  0  0  0  0  0
   65.8550   31.6020   73.6170 O   0  0  0  0  0  1  0  0  0  0  0  0
   64.1100   35.9740   72.7160 O   0  0  0  0  0  0  0  0  0  0  0  0
   61.6480   33.9920   70.3850 O   0  0  0  0  0  0  0  0  0  0  0  0
  1 17  1  0
  1 18  1  0
  1 25  1  0
  2  4  1  0
  2 21  1  0
  2 55  1  0
  2 56  1  0
  3  7  1  0
  3 22  1  0
  3 26  1  0
  3 27  1  0
  4  7  1  0
  4 28  1  0
  4 29  1  0
  5  8  1  0
  5  9  1  0
  5 30  1  0
  5 31  1  0
  6  8  1  0
  6 32  1  0
  6 33  1  0
  6 57  1  0
  7 13  1  0
  7 34  1  0
  8 35  1  0
  8 61  1  0
  9 14  1  0
  9 37  1  0
  9 57  1  0
 10 20  1  0
 10 38  1  0
 10 39  1  0
 10 40  1  0
 11 15  1  0
 11 17  1  0
 11 41  1  0
 11 42  1  0
 12 17  1  0
 12 19  1  0
 12 36  1  0
 13 43  1  0
 13 44  1  0
 13 61  1  0
 14 15  1  0
 14 45  1  0
 14 60  1  0
 15 46  1  0
 15 58  1  0
 16 18  1  0
 16 19  1  0
 16 47  1  0
 18 23  1  0
 19 24  1  0
 20 58  1  0
 20 59  1  0
 21 22  1  0
 21 51  1  0
 21 52  1  0
 22 53  1  0
 22 54  1  0
 48 57  1  0
 49 58  1  0
 50 60  1  0
M  END
$$$$
