6bfw_B_DK7_401
     RDKit          3D

 30 32  0  0  0  0  0  0  0  0999 V2000
   38.5940   37.3200   43.5160 C   0  0  0  0  0  3  0  0  0  0  0  0
   39.8150   38.3400   41.6000 C   0  0  0  0  0  3  0  0  0  0  0  0
   41.1130   38.9190   41.0390 C   0  0  0  0  0  3  0  0  0  0  0  0
   40.9970   39.3420   39.5770 C   0  0  0  0  0  3  0  0  0  0  0  0
   42.1850   40.5090   37.7840 C   0  0  0  0  0  2  0  0  0  0  0  0
   41.0730   41.5400   37.7510 C   0  0  0  0  0  3  0  0  0  0  0  0
   37.4230   38.0680   43.5470 C   0  0  0  0  0  2  0  0  0  0  0  0
   40.5130   43.6870   38.5060 C   0  0  0  0  0  2  0  0  0  0  0  0
   40.9300   44.7550   39.4980 C   0  0  0  0  0  3  0  0  0  0  0  0
   40.2850   46.0970   39.1560 C   0  0  0  0  0  2  0  0  0  0  0  0
   40.6870   47.1500   40.1810 C   0  0  0  0  0  2  0  0  0  0  0  0
   40.3650   46.6860   41.5980 C   0  0  0  0  0  2  0  0  0  0  0  0
   41.0000   45.3380   41.9320 C   0  0  0  0  0  2  0  0  0  0  0  0
   40.5910   44.2960   40.9100 C   0  0  0  0  0  2  0  0  0  0  0  0
   36.2390   37.4790   43.9420 C   0  0  0  0  0  3  0  0  0  0  0  0
   39.8750   40.3690   39.4210 C   0  0  0  0  0  2  0  0  0  0  0  0
   38.1280   37.2690   40.1760 C   0  0  0  0  0  3  0  0  0  0  0  0
   37.7670   35.9720   39.5300 C   0  0  0  0  0  1  0  0  0  0  0  0
   36.1950   36.1570   44.3290 C   0  0  0  0  0  2  0  0  0  0  0  0
   37.3630   35.4210   44.2970 C   0  0  0  0  0  3  0  0  0  0  0  0
   38.5500   35.9910   43.8820 C   0  0  0  0  0  2  0  0  0  0  0  0
   39.8910   37.9190   43.0650 C   0  0  0  0  0  2  0  0  0  0  0  0
   35.1150   38.2020   43.9360 F   0  0  0  0  0  0  0  0  0  0  0  0
   37.3420   34.1260   44.6490 F   0  0  0  0  0  0  0  0  0  0  0  0
   42.2770   39.9360   39.1400 N   0  0  0  0  0  2  0  0  0  0  0  0
   39.3600   37.2460   40.7670 N   0  0  0  0  0  2  0  0  0  0  0  0
   41.5370   40.0610   41.7970 O   0  0  0  0  0  1  0  0  0  0  0  0
   41.4320   42.5910   38.6390 O   0  0  0  0  0  0  0  0  0  0  0  0
   39.8450   40.8850   38.0910 O   0  0  0  0  0  0  0  0  0  0  0  0
   37.3600   38.2080   40.1750 O   0  0  0  0  0  1  0  0  0  0  0  0
  1  7  1  0
  1 21  1  0
  1 22  1  0
  2  3  1  0
  2 22  1  0
  2 26  1  0
  3  4  1  0
  3 27  1  0
  4 16  1  0
  4 25  1  0
  5  6  1  0
  5 25  1  0
  6 28  1  0
  6 29  1  0
  7 15  1  0
  8  9  1  0
  8 28  1  0
  9 10  1  0
  9 14  1  0
 10 11  1  0
 11 12  1  0
 12 13  1  0
 13 14  1  0
 15 19  1  0
 15 23  1  0
 16 29  1  0
 17 18  1  0
 17 26  1  0
 17 30  1  0
 19 20  1  0
 20 21  1  0
 20 24  1  0
M  END
$$$$
