6bfw_A_DK7_401
     RDKit          3D

 30 32  0  0  0  0  0  0  0  0999 V2000
   15.6170   -1.2560   -1.4690 C   0  0  0  0  0  3  0  0  0  0  0  0
   14.2010   -2.3040    0.3080 C   0  0  0  0  0  3  0  0  0  0  0  0
   14.1010   -2.9070    1.7060 C   0  0  0  0  0  3  0  0  0  0  0  0
   12.6770   -3.3700    2.0600 C   0  0  0  0  0  3  0  0  0  0  0  0
   11.3620   -4.5010    3.7840 C   0  0  0  0  0  2  0  0  0  0  0  0
   10.9450   -5.5470    2.7560 C   0  0  0  0  0  3  0  0  0  0  0  0
   15.2460   -1.9910   -2.5790 C   0  0  0  0  0  2  0  0  0  0  0  0
   11.4820   -7.6960    2.0090 C   0  0  0  0  0  2  0  0  0  0  0  0
   12.5860   -8.7380    2.0200 C   0  0  0  0  0  3  0  0  0  0  0  0
   12.0700  -10.0640    1.4730 C   0  0  0  0  0  2  0  0  0  0  0  0
   13.2020  -11.0850    1.4100 C   0  0  0  0  0  2  0  0  0  0  0  0
   14.4070  -10.5720    0.6330 C   0  0  0  0  0  2  0  0  0  0  0  0
   14.9080   -9.2340    1.1830 C   0  0  0  0  0  2  0  0  0  0  0  0
   13.7770   -8.2170    1.2280 C   0  0  0  0  0  2  0  0  0  0  0  0
   15.2250   -1.4200   -3.8330 C   0  0  0  0  0  3  0  0  0  0  0  0
   12.1740   -4.4250    1.0710 C   0  0  0  0  0  2  0  0  0  0  0  0
   12.2900   -1.2190   -0.8230 C   0  0  0  0  0  3  0  0  0  0  0  0
   11.5890    0.0940   -0.9560 C   0  0  0  0  0  1  0  0  0  0  0  0
   15.6020   -0.1060   -4.0120 C   0  0  0  0  0  2  0  0  0  0  0  0
   15.9830    0.6310   -2.9050 C   0  0  0  0  0  3  0  0  0  0  0  0
   15.9790    0.0680   -1.6410 C   0  0  0  0  0  2  0  0  0  0  0  0
   15.6180   -1.8900   -0.1070 C   0  0  0  0  0  2  0  0  0  0  0  0
   14.8330   -2.1740   -4.8740 F   0  0  0  0  0  0  0  0  0  0  0  0
   16.3240    1.9290   -3.0570 F   0  0  0  0  0  0  0  0  0  0  0  0
   12.6710   -3.9360    3.4170 N   0  0  0  0  0  2  0  0  0  0  0  0
   13.2830   -1.2070    0.1340 N   0  0  0  0  0  2  0  0  0  0  0  0
   14.9600   -4.0490    1.8040 O   0  0  0  0  0  1  0  0  0  0  0  0
   11.9100   -6.5860    2.8110 O   0  0  0  0  0  0  0  0  0  0  0  0
   10.8820   -4.9090    1.4770 O   0  0  0  0  0  0  0  0  0  0  0  0
   11.9690   -2.1570   -1.5290 O   0  0  0  0  0  1  0  0  0  0  0  0
  1  7  1  0
  1 21  1  0
  1 22  1  0
  2  3  1  0
  2 22  1  0
  2 26  1  0
  3  4  1  0
  3 27  1  0
  4 16  1  0
  4 25  1  0
  5  6  1  0
  5 25  1  0
  6 28  1  0
  6 29  1  0
  7 15  1  0
  8  9  1  0
  8 28  1  0
  9 10  1  0
  9 14  1  0
 10 11  1  0
 11 12  1  0
 12 13  1  0
 13 14  1  0
 15 19  1  0
 15 23  1  0
 16 29  1  0
 17 18  1  0
 17 26  1  0
 17 30  1  0
 19 20  1  0
 20 21  1  0
 20 24  1  0
M  END
$$$$
