6c2i_A_EJ7_407
     RDKit          3D

 45 48  0  0  0  0  0  0  0  0999 V2000
   70.8870   48.4070    6.8530 C   0  0  0  0  0  3  0  0  0  0  0  0
   67.6300   50.7930    9.5210 C   0  0  0  0  0  0  0  0  0  0  0  0
   67.5290   48.3400   10.0900 C   0  0  0  0  0  0  0  0  0  0  0  0
   66.9340   47.0430    9.6130 C   0  0  0  0  0  0  0  0  0  0  0  0
   66.2900   48.2280    7.5810 C   0  0  0  0  0  3  0  0  0  0  0  0
   66.0990   47.9910   10.4120 C   0  0  0  0  0  0  0  0  0  0  0  0
   72.0350   47.1600    5.0050 C   0  0  0  0  0  3  0  0  0  0  0  0
   71.8270   46.4980    3.7690 C   0  0  0  0  0  3  0  0  0  0  0  0
   71.9470   48.7740    7.6470 C   0  0  0  0  0  3  0  0  0  0  0  0
   70.4740   45.9960    1.9850 C   0  0  0  0  0  3  0  0  0  0  0  0
   71.4220   45.1570    1.4550 C   0  0  0  0  0  3  0  0  0  0  0  0
   72.7820   45.6380    3.2430 C   0  0  0  0  0  3  0  0  0  0  0  0
   71.9970   43.7760   -0.2790 C   0  0  0  0  0  0  0  0  0  0  0  0
   71.6840   49.3550    8.8580 C   0  0  0  0  0  3  0  0  0  0  0  0
   70.4100   49.5620    9.3400 C   0  0  0  0  0  3  0  0  0  0  0  0
   69.3100   49.1850    8.5600 C   0  0  0  0  0  3  0  0  0  0  0  0
   69.6150   48.6050    7.3450 C   0  0  0  0  0  3  0  0  0  0  0  0
   67.8270   49.3900    9.0200 C   0  0  0  0  0  0  0  0  0  0  0  0
   70.2440   50.1230   10.5310 F   0  0  0  0  0  0  0  0  0  0  0  0
   66.7230   51.1180    9.2550 H   0  0  0  0  0  0  0  0  0  0  0  0
   68.3270   51.3900    9.1260 H   0  0  0  0  0  0  0  0  0  0  0  0
   67.7080   50.8050   10.5170 H   0  0  0  0  0  0  0  0  0  0  0  0
   65.8400   47.7640   11.3520 H   0  0  0  0  0  0  0  0  0  0  0  0
   72.8890   48.6200    7.3470 H   0  0  0  0  0  0  0  0  0  0  0  0
   69.6040   46.1260    1.5080 H   0  0  0  0  0  0  0  0  0  0  0  0
   73.6450   45.5000    3.7280 H   0  0  0  0  0  0  0  0  0  0  0  0
   71.6240   43.4320   -1.1410 H   0  0  0  0  0  0  0  0  0  0  0  0
   72.2040   43.0070    0.3260 H   0  0  0  0  0  0  0  0  0  0  0  0
   72.8330   44.2940   -0.4600 H   0  0  0  0  0  0  0  0  0  0  0  0
   72.4570   49.6440    9.4220 H   0  0  0  0  0  0  0  0  0  0  0  0
   68.8620   48.2980    6.7630 H   0  0  0  0  0  0  0  0  0  0  0  0
   67.1760   46.0780    9.7110 H   0  0  0  0  0  0  0  0  0  0  0  0
   68.3080   48.6100   10.6500 H   0  0  0  0  0  0  0  0  0  0  0  0
   65.3520   48.4940    9.9770 H   0  0  0  0  0  0  0  0  0  0  0  0
   70.1130   47.6980    5.0340 H   0  0  0  0  0  0  0  0  0  0  0  0
   64.9470   47.3930    6.1990 H   0  0  0  0  0  0  0  0  0  0  0  0
   65.4730   49.0070    5.8110 H   0  0  0  0  0  0  0  0  0  0  0  0
   66.9570   49.2720    7.8720 N   0  0  0  0  0  2  0  0  0  0  0  0
   65.4990   48.2080    6.4280 N   0  0  0  0  0  0  0  0  0  0  0  0
   70.6940   46.6190    3.0960 N   0  0  0  0  0  2  0  0  0  0  0  0
   72.5650   44.9980    2.1090 N   0  0  0  0  0  2  0  0  0  0  0  0
   70.9600   47.7380    5.5680 N   0  0  0  0  0  0  0  0  0  0  0  0
   66.2720   47.1210    8.3620 O   0  0  0  0  0  0  0  0  0  0  0  0
   73.1450   47.1850    5.5390 O   0  0  0  0  0  1  0  0  0  0  0  0
   71.0970   44.5740    0.3080 O   0  0  0  0  0  0  0  0  0  0  0  0
  1  9  1  0
  1 17  1  0
  1 42  1  0
  2 18  1  0
  2 20  1  0
  2 21  1  0
  2 22  1  0
  3  4  1  0
  3  6  1  0
  3 18  1  0
  3 33  1  0
  4  6  1  0
  4 32  1  0
  4 43  1  0
  5 38  1  0
  5 39  1  0
  5 43  1  0
  6 23  1  0
  6 34  1  0
  7  8  1  0
  7 42  1  0
  7 44  1  0
  8 12  1  0
  8 40  1  0
  9 14  1  0
  9 24  1  0
 10 11  1  0
 10 25  1  0
 10 40  1  0
 11 41  1  0
 11 45  1  0
 12 26  1  0
 12 41  1  0
 13 27  1  0
 13 28  1  0
 13 29  1  0
 13 45  1  0
 14 15  1  0
 14 30  1  0
 15 16  1  0
 15 19  1  0
 16 17  1  0
 16 18  1  0
 17 31  1  0
 18 38  1  0
 35 42  1  0
 36 39  1  0
 37 39  1  0
M  END
$$$$
