6dhc_B_GHJ_401
     RDKit          3D

 93 94  0  0  0  0  0  0  0  0999 V2000
   11.3100  -23.0420   65.8680 C   0  0  0  0  0  0  0  0  0  0  0  0
   12.8430  -21.3460   65.0660 C   0  0  0  0  0  0  0  0  0  0  0  0
   12.4980  -21.1160   66.3490 C   0  0  0  0  0  0  0  0  0  0  0  0
   11.2450  -22.0130   66.6760 C   0  0  0  0  0  0  0  0  0  0  0  0
   11.2790  -22.5370   67.9270 C   0  0  0  0  0  3  0  0  0  0  0  0
   11.0600  -21.6750   69.2020 C   0  0  0  0  0  3  0  0  0  0  0  0
   12.0580  -20.1660   70.9680 C   0  0  0  0  0  0  0  0  0  0  0  0
   12.3470  -20.8980   72.2500 C   0  0  0  0  0  0  0  0  0  0  0  0
   11.6510  -23.3100   73.6530 C   0  0  0  0  0  0  0  0  0  0  0  0
   13.0880  -19.0520   70.7670 C   0  0  0  0  0  3  0  0  0  0  0  0
   13.9560  -17.1500   69.2990 C   0  0  0  0  0  0  0  0  0  0  0  0
   14.2340  -17.1920   67.7930 C   0  0  0  0  0  0  0  0  0  0  0  0
   14.8970  -18.5550   67.3970 C   0  0  0  0  0  0  0  0  0  0  0  0
   16.3190  -18.7310   68.0300 C   0  0  0  0  0  0  0  0  0  0  0  0
   14.9790  -18.6770   65.8560 C   0  0  0  0  0  0  0  0  0  0  0  0
   13.4750  -15.7930   69.7570 C   0  0  0  0  0  0  0  0  0  0  0  0
   13.0330  -15.8710   71.2470 C   0  0  0  0  0  0  0  0  0  0  0  0
   13.0550  -14.4610   71.8590 C   0  0  0  0  0  0  0  0  0  0  0  0
   14.4150  -14.2280   72.5430 C   0  0  0  0  0  3  0  0  0  0  0  0
   16.2910  -12.6850   73.0790 C   0  0  0  0  0  0  0  0  0  0  0  0
   16.0790  -12.8390   74.5940 C   0  0  0  0  0  3  0  0  0  0  0  0
   17.1440  -13.1650   76.9060 C   0  0  0  0  0  0  0  0  0  0  0  0
   17.8410  -14.4480   77.2910 C   0  0  0  0  0  0  0  0  0  0  0  0
   17.2080  -15.6410   76.5520 C   0  0  0  0  0  0  0  0  0  0  0  0
   17.8390  -14.6580   78.8460 C   0  0  0  0  0  0  0  0  0  0  0  0
   16.8540  -11.2440   72.9580 C   0  0  0  0  0  0  0  0  0  0  0  0
   18.3510  -11.2910   72.5490 C   0  0  0  0  0  0  0  0  0  0  0  0
   15.9920  -10.3190   72.0950 C   0  0  0  0  0  0  0  0  0  0  0  0
   11.9640  -14.3050   72.8830 C   0  0  0  0  0  0  0  0  0  0  0  0
   10.4260  -23.3840   65.6590 H   0  0  0  0  0  0  0  0  0  0  0  0
   13.7910  -21.5450   65.0100 H   0  0  0  0  0  0  0  0  0  0  0  0
   12.6290  -20.5710   64.5230 H   0  0  0  0  0  0  0  0  0  0  0  0
   12.2680  -20.1800   66.4630 H   0  0  0  0  0  0  0  0  0  0  0  0
   13.2330  -21.3530   66.9340 H   0  0  0  0  0  0  0  0  0  0  0  0
   10.4220  -21.5210   66.5340 H   0  0  0  0  0  0  0  0  0  0  0  0
   13.0160  -21.0960   69.4530 H   0  0  0  0  0  0  0  0  0  0  0  0
   11.1610  -19.7980   70.9830 H   0  0  0  0  0  0  0  0  0  0  0  0
   13.1600  -21.4170   72.1480 H   0  0  0  0  0  0  0  0  0  0  0  0
   12.4520  -20.2620   72.9750 H   0  0  0  0  0  0  0  0  0  0  0  0
   10.9580  -23.9480   73.8860 H   0  0  0  0  0  0  0  0  0  0  0  0
   12.3610  -23.7640   73.1730 H   0  0  0  0  0  0  0  0  0  0  0  0
   12.0090  -22.9130   74.4620 H   0  0  0  0  0  0  0  0  0  0  0  0
   12.3440  -18.3440   68.9650 H   0  0  0  0  0  0  0  0  0  0  0  0
   14.7710  -17.3710   69.7760 H   0  0  0  0  0  0  0  0  0  0  0  0
   13.3980  -17.0920   67.3110 H   0  0  0  0  0  0  0  0  0  0  0  0
   14.8290  -16.4640   67.5550 H   0  0  0  0  0  0  0  0  0  0  0  0
   14.3310  -19.2710   67.7250 H   0  0  0  0  0  0  0  0  0  0  0  0
   16.9160  -18.0530   67.6770 H   0  0  0  0  0  0  0  0  0  0  0  0
   16.6640  -19.6110   67.8110 H   0  0  0  0  0  0  0  0  0  0  0  0
   16.2580  -18.6380   68.9940 H   0  0  0  0  0  0  0  0  0  0  0  0
   14.1730  -19.1000   65.5220 H   0  0  0  0  0  0  0  0  0  0  0  0
   15.7510  -19.2120   65.6140 H   0  0  0  0  0  0  0  0  0  0  0  0
   15.0640  -17.7920   65.4660 H   0  0  0  0  0  0  0  0  0  0  0  0
   14.2020  -15.1550   69.6760 H   0  0  0  0  0  0  0  0  0  0  0  0
   12.6690  -15.2900   68.1740 H   0  0  0  0  0  0  0  0  0  0  0  0
   12.1340  -16.2320   71.2980 H   0  0  0  0  0  0  0  0  0  0  0  0
   13.6420  -16.4460   71.7360 H   0  0  0  0  0  0  0  0  0  0  0  0
   12.9330  -13.8040   71.1560 H   0  0  0  0  0  0  0  0  0  0  0  0
   14.6700  -12.2580   72.0020 H   0  0  0  0  0  0  0  0  0  0  0  0
   16.9450  -13.3280   72.7650 H   0  0  0  0  0  0  0  0  0  0  0  0
   18.0410  -13.0420   75.0590 H   0  0  0  0  0  0  0  0  0  0  0  0
   17.5670  -12.4140   77.3500 H   0  0  0  0  0  0  0  0  0  0  0  0
   16.2080  -13.2120   77.1560 H   0  0  0  0  0  0  0  0  0  0  0  0
   18.7650  -14.3800   77.0030 H   0  0  0  0  0  0  0  0  0  0  0  0
   17.5820  -16.4680   76.8930 H   0  0  0  0  0  0  0  0  0  0  0  0
   16.2480  -15.6360   76.6940 H   0  0  0  0  0  0  0  0  0  0  0  0
   17.3940  -15.5680   75.6030 H   0  0  0  0  0  0  0  0  0  0  0  0
   17.9510  -13.8020   79.2880 H   0  0  0  0  0  0  0  0  0  0  0  0
   16.9960  -15.0540   79.1180 H   0  0  0  0  0  0  0  0  0  0  0  0
   18.5680  -15.2470   79.0950 H   0  0  0  0  0  0  0  0  0  0  0  0
   16.8320  -10.8720   73.8530 H   0  0  0  0  0  0  0  0  0  0  0  0
   18.4330  -11.6880   71.6680 H   0  0  0  0  0  0  0  0  0  0  0  0
   18.8440  -11.8240   73.1910 H   0  0  0  0  0  0  0  0  0  0  0  0
   18.7100  -10.3900   72.5330 H   0  0  0  0  0  0  0  0  0  0  0  0
   15.8870  -10.7050   71.2110 H   0  0  0  0  0  0  0  0  0  0  0  0
   16.4230   -9.4530   72.0200 H   0  0  0  0  0  0  0  0  0  0  0  0
   15.1210  -10.2120   72.5070 H   0  0  0  0  0  0  0  0  0  0  0  0
   11.1120  -14.1960   72.4320 H   0  0  0  0  0  0  0  0  0  0  0  0
   11.9340  -15.0950   73.4450 H   0  0  0  0  0  0  0  0  0  0  0  0
   12.1430  -13.5250   73.4300 H   0  0  0  0  0  0  0  0  0  0  0  0
   12.2390  -21.0110   69.8100 N   0  0  0  0  0  0  0  0  0  0  0  0
   12.9690  -18.1980   69.5370 N   0  0  0  0  0  0  0  0  0  0  0  0
   15.0530  -12.8940   72.4350 N   0  0  0  0  0  0  0  0  0  0  0  0
   17.2640  -13.0140   75.4270 N   0  0  0  0  0  0  0  0  0  0  0  0
   12.1100  -23.6250   67.8450 N   0  0  0  0  0  2  0  0  0  0  0  0
   12.0410  -22.5350   64.5960 O   0  0  0  0  0  0  0  0  0  0  0  0
   12.4150  -15.3700   68.9810 O   0  0  0  0  0  0  0  0  0  0  0  0
   14.9860  -12.7860   75.0570 O   0  0  0  0  0  1  0  0  0  0  0  0
   14.9390  -15.1130   73.1520 O   0  0  0  0  0  1  0  0  0  0  0  0
   13.9460  -18.8830   71.5540 O   0  0  0  0  0  1  0  0  0  0  0  0
    9.9840  -21.5430   69.6680 O   0  0  0  0  0  1  0  0  0  0  0  0
   12.1050  -24.0240   66.5720 O   0  0  0  0  0  0  0  0  0  0  0  0
   10.9490  -22.0150   72.6070 S   0  0  0  0  0  0  0  0  0  0  0  0
  1  4  1  0
  1 30  1  0
  1 86  1  0
  1 92  1  0
  2  3  1  0
  2 31  1  0
  2 32  1  0
  2 86  1  0
  3  4  1  0
  3 33  1  0
  3 34  1  0
  4  5  1  0
  4 35  1  0
  5  6  1  0
  5 85  1  0
  6 81  1  0
  6 91  1  0
  7  8  1  0
  7 10  1  0
  7 37  1  0
  7 81  1  0
  8 38  1  0
  8 39  1  0
  8 93  1  0
  9 40  1  0
  9 41  1  0
  9 42  1  0
  9 93  1  0
 10 82  1  0
 10 90  1  0
 11 12  1  0
 11 16  1  0
 11 44  1  0
 11 82  1  0
 12 13  1  0
 12 45  1  0
 12 46  1  0
 13 14  1  0
 13 15  1  0
 13 47  1  0
 14 48  1  0
 14 49  1  0
 14 50  1  0
 15 51  1  0
 15 52  1  0
 15 53  1  0
 16 17  1  0
 16 54  1  0
 16 87  1  0
 17 18  1  0
 17 56  1  0
 17 57  1  0
 18 19  1  0
 18 29  1  0
 18 58  1  0
 19 83  1  0
 19 89  1  0
 20 21  1  0
 20 26  1  0
 20 60  1  0
 20 83  1  0
 21 84  1  0
 21 88  1  0
 22 23  1  0
 22 62  1  0
 22 63  1  0
 22 84  1  0
 23 24  1  0
 23 25  1  0
 23 64  1  0
 24 65  1  0
 24 66  1  0
 24 67  1  0
 25 68  1  0
 25 69  1  0
 25 70  1  0
 26 27  1  0
 26 28  1  0
 26 71  1  0
 27 72  1  0
 27 73  1  0
 27 74  1  0
 28 75  1  0
 28 76  1  0
 28 77  1  0
 29 78  1  0
 29 79  1  0
 29 80  1  0
 36 81  1  0
 43 82  1  0
 55 87  1  0
 59 83  1  0
 61 84  1  0
 85 92  1  0
M  END
$$$$
