6dhc_C_GHJ_401
     RDKit          3D

 93 94  0  0  0  0  0  0  0  0999 V2000
   33.9610  -10.7270   98.3960 C   0  0  0  0  0  0  0  0  0  0  0  0
   34.5370  -12.7210   97.1200 C   0  0  0  0  0  0  0  0  0  0  0  0
   35.6130  -11.9330   97.2950 C   0  0  0  0  0  0  0  0  0  0  0  0
   35.1430  -10.5280   97.8530 C   0  0  0  0  0  0  0  0  0  0  0  0
   35.9840  -10.0610   98.8310 C   0  0  0  0  0  3  0  0  0  0  0  0
   37.5250  -10.2810   98.7590 C   0  0  0  0  0  3  0  0  0  0  0  0
   39.5680  -11.7110   99.3780 C   0  0  0  0  0  0  0  0  0  0  0  0
   40.4520  -10.5150   99.7360 C   0  0  0  0  0  0  0  0  0  0  0  0
   40.7940   -7.8710  100.8650 C   0  0  0  0  0  0  0  0  0  0  0  0
   39.9960  -12.8520  100.3240 C   0  0  0  0  0  3  0  0  0  0  0  0
   39.7370  -15.1320   98.8250 C   0  0  0  0  0  0  0  0  0  0  0  0
   38.4420  -14.5980   98.2140 C   0  0  0  0  0  0  0  0  0  0  0  0
   37.1770  -15.0650   99.0190 C   0  0  0  0  0  0  0  0  0  0  0  0
   37.4190  -15.4790  100.5050 C   0  0  0  0  0  0  0  0  0  0  0  0
   36.4720  -16.2150   98.2830 C   0  0  0  0  0  0  0  0  0  0  0  0
   40.9190  -15.3030   97.8740 C   0  0  0  0  0  0  0  0  0  0  0  0
   42.2260  -14.7030   98.4910 C   0  0  0  0  0  0  0  0  0  0  0  0
   43.4670  -15.5410   98.1720 C   0  0  0  0  0  0  0  0  0  0  0  0
   43.9020  -16.3310   99.4240 C   0  0  0  0  0  3  0  0  0  0  0  0
   44.7620  -18.4050  100.4890 C   0  0  0  0  0  0  0  0  0  0  0  0
   46.1060  -17.7060  100.8320 C   0  0  0  0  0  3  0  0  0  0  0  0
   45.9420  -17.9830  103.3770 C   0  0  0  0  0  0  0  0  0  0  0  0
   46.3510  -17.1420  104.5770 C   0  0  0  0  0  0  0  0  0  0  0  0
   45.2970  -16.0600  104.8500 C   0  0  0  0  0  0  0  0  0  0  0  0
   47.7510  -16.4670  104.4060 C   0  0  0  0  0  0  0  0  0  0  0  0
   45.0000  -19.9100  100.1760 C   0  0  0  0  0  0  0  0  0  0  0  0
   46.1970  -20.1360   99.2060 C   0  0  0  0  0  0  0  0  0  0  0  0
   43.7380  -20.4830   99.5500 C   0  0  0  0  0  0  0  0  0  0  0  0
   44.5920  -14.6120   97.8290 C   0  0  0  0  0  0  0  0  0  0  0  0
   33.3860   -9.9540   98.2830 H   0  0  0  0  0  0  0  0  0  0  0  0
   34.6660  -13.5650   97.5800 H   0  0  0  0  0  0  0  0  0  0  0  0
   34.3890  -12.8720   96.1730 H   0  0  0  0  0  0  0  0  0  0  0  0
   36.0640  -11.8080   96.4460 H   0  0  0  0  0  0  0  0  0  0  0  0
   36.2170  -12.3470   97.9310 H   0  0  0  0  0  0  0  0  0  0  0  0
   35.0750   -9.8830   97.1320 H   0  0  0  0  0  0  0  0  0  0  0  0
   37.6260  -11.9840   99.9030 H   0  0  0  0  0  0  0  0  0  0  0  0
   39.7700  -11.9780   98.4680 H   0  0  0  0  0  0  0  0  0  0  0  0
   41.2980  -10.8530  100.0690 H   0  0  0  0  0  0  0  0  0  0  0  0
   40.6250  -10.0170   98.9220 H   0  0  0  0  0  0  0  0  0  0  0  0
   40.4800   -7.2130  101.5050 H   0  0  0  0  0  0  0  0  0  0  0  0
   41.7170   -8.0990  101.0620 H   0  0  0  0  0  0  0  0  0  0  0  0
   40.7360   -7.5040   99.9690 H   0  0  0  0  0  0  0  0  0  0  0  0
   40.3420  -14.8150  100.7050 H   0  0  0  0  0  0  0  0  0  0  0  0
   39.5270  -16.0250   99.1410 H   0  0  0  0  0  0  0  0  0  0  0  0
   38.4720  -13.6280   98.2120 H   0  0  0  0  0  0  0  0  0  0  0  0
   38.3700  -14.9130   97.3000 H   0  0  0  0  0  0  0  0  0  0  0  0
   36.5600  -14.3170   99.0320 H   0  0  0  0  0  0  0  0  0  0  0  0
   37.8420  -14.7460  100.9800 H   0  0  0  0  0  0  0  0  0  0  0  0
   37.9950  -16.2590  100.5340 H   0  0  0  0  0  0  0  0  0  0  0  0
   36.5700  -15.6880  100.9250 H   0  0  0  0  0  0  0  0  0  0  0  0
   36.0350  -16.7920   98.9290 H   0  0  0  0  0  0  0  0  0  0  0  0
   37.1240  -16.7270   97.7800 H   0  0  0  0  0  0  0  0  0  0  0  0
   35.8090  -15.8500   97.6760 H   0  0  0  0  0  0  0  0  0  0  0  0
   41.0590  -16.2530   97.7350 H   0  0  0  0  0  0  0  0  0  0  0  0
   41.0390  -15.1970   96.0390 H   0  0  0  0  0  0  0  0  0  0  0  0
   42.1220  -14.6520   99.4540 H   0  0  0  0  0  0  0  0  0  0  0  0
   42.3550  -13.8070   98.1430 H   0  0  0  0  0  0  0  0  0  0  0  0
   43.2890  -16.1450   97.4350 H   0  0  0  0  0  0  0  0  0  0  0  0
   44.3250  -18.1510   98.5530 H   0  0  0  0  0  0  0  0  0  0  0  0
   44.1230  -18.2980  101.2110 H   0  0  0  0  0  0  0  0  0  0  0  0
   47.3960  -17.1090  102.2490 H   0  0  0  0  0  0  0  0  0  0  0  0
   44.9840  -17.9100  103.2450 H   0  0  0  0  0  0  0  0  0  0  0  0
   46.1740  -18.9100  103.5420 H   0  0  0  0  0  0  0  0  0  0  0  0
   46.3910  -17.7250  105.3520 H   0  0  0  0  0  0  0  0  0  0  0  0
   45.6210  -15.4590  105.5390 H   0  0  0  0  0  0  0  0  0  0  0  0
   45.1300  -15.5600  104.0360 H   0  0  0  0  0  0  0  0  0  0  0  0
   44.4740  -16.4790  105.1470 H   0  0  0  0  0  0  0  0  0  0  0  0
   47.6550  -15.6450  103.8990 H   0  0  0  0  0  0  0  0  0  0  0  0
   48.1220  -16.2650  105.2800 H   0  0  0  0  0  0  0  0  0  0  0  0
   48.3460  -17.0700  103.9340 H   0  0  0  0  0  0  0  0  0  0  0  0
   45.1780  -20.3790  101.0070 H   0  0  0  0  0  0  0  0  0  0  0  0
   46.0490  -19.6330   98.3890 H   0  0  0  0  0  0  0  0  0  0  0  0
   46.2690  -21.0800   98.9950 H   0  0  0  0  0  0  0  0  0  0  0  0
   47.0170  -19.8350   99.6270 H   0  0  0  0  0  0  0  0  0  0  0  0
   42.9880  -20.3450  100.1500 H   0  0  0  0  0  0  0  0  0  0  0  0
   43.8560  -21.4340   99.3950 H   0  0  0  0  0  0  0  0  0  0  0  0
   43.5640  -20.0370   98.7070 H   0  0  0  0  0  0  0  0  0  0  0  0
   45.4310  -15.0960   97.8590 H   0  0  0  0  0  0  0  0  0  0  0  0
   44.6150  -13.8830   98.4690 H   0  0  0  0  0  0  0  0  0  0  0  0
   44.4560  -14.2550   96.9370 H   0  0  0  0  0  0  0  0  0  0  0  0
   38.1320  -11.4420   99.4680 N   0  0  0  0  0  0  0  0  0  0  0  0
   40.0730  -14.3420  100.0400 N   0  0  0  0  0  0  0  0  0  0  0  0
   44.3090  -17.7520   99.3140 N   0  0  0  0  0  0  0  0  0  0  0  0
   46.6410  -17.5120  102.1620 N   0  0  0  0  0  0  0  0  0  0  0  0
   35.2800  -10.1170  100.0070 N   0  0  0  0  0  2  0  0  0  0  0  0
   33.3610  -11.9870   97.7110 O   0  0  0  0  0  0  0  0  0  0  0  0
   40.6900  -14.7200   96.6490 O   0  0  0  0  0  0  0  0  0  0  0  0
   46.7640  -17.2760   99.9490 O   0  0  0  0  0  1  0  0  0  0  0  0
   43.9240  -15.7850  100.4830 O   0  0  0  0  0  1  0  0  0  0  0  0
   40.3350  -12.5170  101.4000 O   0  0  0  0  0  1  0  0  0  0  0  0
   38.1890   -9.5400   98.1310 O   0  0  0  0  0  1  0  0  0  0  0  0
   34.2720  -10.9570   99.7890 O   0  0  0  0  0  0  0  0  0  0  0  0
   39.7720   -9.3540  100.9760 S   0  0  0  0  0  0  0  0  0  0  0  0
  1  4  1  0
  1 30  1  0
  1 86  1  0
  1 92  1  0
  2  3  1  0
  2 31  1  0
  2 32  1  0
  2 86  1  0
  3  4  1  0
  3 33  1  0
  3 34  1  0
  4  5  1  0
  4 35  1  0
  5  6  1  0
  5 85  1  0
  6 81  1  0
  6 91  1  0
  7  8  1  0
  7 10  1  0
  7 37  1  0
  7 81  1  0
  8 38  1  0
  8 39  1  0
  8 93  1  0
  9 40  1  0
  9 41  1  0
  9 42  1  0
  9 93  1  0
 10 82  1  0
 10 90  1  0
 11 12  1  0
 11 16  1  0
 11 44  1  0
 11 82  1  0
 12 13  1  0
 12 45  1  0
 12 46  1  0
 13 14  1  0
 13 15  1  0
 13 47  1  0
 14 48  1  0
 14 49  1  0
 14 50  1  0
 15 51  1  0
 15 52  1  0
 15 53  1  0
 16 17  1  0
 16 54  1  0
 16 87  1  0
 17 18  1  0
 17 56  1  0
 17 57  1  0
 18 19  1  0
 18 29  1  0
 18 58  1  0
 19 83  1  0
 19 89  1  0
 20 21  1  0
 20 26  1  0
 20 60  1  0
 20 83  1  0
 21 84  1  0
 21 88  1  0
 22 23  1  0
 22 62  1  0
 22 63  1  0
 22 84  1  0
 23 24  1  0
 23 25  1  0
 23 64  1  0
 24 65  1  0
 24 66  1  0
 24 67  1  0
 25 68  1  0
 25 69  1  0
 25 70  1  0
 26 27  1  0
 26 28  1  0
 26 71  1  0
 27 72  1  0
 27 73  1  0
 27 74  1  0
 28 75  1  0
 28 76  1  0
 28 77  1  0
 29 78  1  0
 29 79  1  0
 29 80  1  0
 36 81  1  0
 43 82  1  0
 55 87  1  0
 59 83  1  0
 61 84  1  0
 85 92  1  0
M  END
$$$$
