6dhc_A_GHJ_401
     RDKit          3D

 93 94  0  0  0  0  0  0  0  0999 V2000
    0.0090  -15.1340   28.2300 C   0  0  0  0  0  0  0  0  0  0  0  0
   -1.5790  -16.6410   29.2690 C   0  0  0  0  0  0  0  0  0  0  0  0
   -0.8000  -17.2620   28.3580 C   0  0  0  0  0  0  0  0  0  0  0  0
    0.4740  -16.3400   28.2990 C   0  0  0  0  0  0  0  0  0  0  0  0
    1.1240  -16.2860   29.4860 C   0  0  0  0  0  3  0  0  0  0  0  0
    1.5820  -17.5400   30.2440 C   0  0  0  0  0  3  0  0  0  0  0  0
    1.7600  -18.9220   32.3540 C   0  0  0  0  0  0  0  0  0  0  0  0
    3.2310  -18.9840   31.8760 C   0  0  0  0  0  0  0  0  0  0  0  0
    5.8260  -18.5490   33.1630 C   0  0  0  0  0  0  0  0  0  0  0  0
    1.5590  -18.8300   33.8990 C   0  0  0  0  0  3  0  0  0  0  0  0
   -1.1480  -18.5890   34.6480 C   0  0  0  0  0  0  0  0  0  0  0  0
   -1.6250  -17.9190   33.3450 C   0  0  0  0  0  0  0  0  0  0  0  0
   -1.6330  -16.3400   33.3550 C   0  0  0  0  0  0  0  0  0  0  0  0
   -1.6960  -15.6480   34.7510 C   0  0  0  0  0  0  0  0  0  0  0  0
   -2.7860  -15.7770   32.4930 C   0  0  0  0  0  0  0  0  0  0  0  0
   -1.9070  -19.8790   34.9500 C   0  0  0  0  0  0  0  0  0  0  0  0
   -1.0020  -20.9810   35.5740 C   0  0  0  0  0  0  0  0  0  0  0  0
   -1.8410  -21.9130   36.4600 C   0  0  0  0  0  0  0  0  0  0  0  0
   -1.8060  -21.4160   37.9190 C   0  0  0  0  0  3  0  0  0  0  0  0
   -2.9460  -21.0910   40.1170 C   0  0  0  0  0  0  0  0  0  0  0  0
   -2.2080  -22.1910   40.9110 C   0  0  0  0  0  3  0  0  0  0  0  0
   -0.4830  -20.7110   42.1930 C   0  0  0  0  0  0  0  0  0  0  0  0
    1.0180  -20.8920   42.0310 C   0  0  0  0  0  0  0  0  0  0  0  0
    1.5610  -22.0420   42.8950 C   0  0  0  0  0  0  0  0  0  0  0  0
    1.8220  -19.5680   42.2960 C   0  0  0  0  0  0  0  0  0  0  0  0
   -4.4180  -20.9260   40.5990 C   0  0  0  0  0  0  0  0  0  0  0  0
   -4.4950  -20.1980   41.9620 C   0  0  0  0  0  0  0  0  0  0  0  0
   -5.1540  -22.2640   40.6570 C   0  0  0  0  0  0  0  0  0  0  0  0
   -1.2820  -23.3070   36.4420 C   0  0  0  0  0  0  0  0  0  0  0  0
   -0.3100  -14.9110   27.3410 H   0  0  0  0  0  0  0  0  0  0  0  0
   -1.4500  -17.0380   30.1450 H   0  0  0  0  0  0  0  0  0  0  0  0
   -2.5110  -16.6970   29.0050 H   0  0  0  0  0  0  0  0  0  0  0  0
   -1.2400  -17.2900   27.4940 H   0  0  0  0  0  0  0  0  0  0  0  0
   -0.5640  -18.1530   28.6590 H   0  0  0  0  0  0  0  0  0  0  0  0
    1.0640  -16.5530   27.5590 H   0  0  0  0  0  0  0  0  0  0  0  0
    0.8610  -17.1180   32.1330 H   0  0  0  0  0  0  0  0  0  0  0  0
    1.2780  -19.6910   32.0120 H   0  0  0  0  0  0  0  0  0  0  0  0
    3.2230  -19.4220   31.0110 H   0  0  0  0  0  0  0  0  0  0  0  0
    3.5150  -18.0680   31.7310 H   0  0  0  0  0  0  0  0  0  0  0  0
    5.4450  -17.8020   33.6510 H   0  0  0  0  0  0  0  0  0  0  0  0
    6.5410  -18.9450   33.6850 H   0  0  0  0  0  0  0  0  0  0  0  0
    6.1790  -18.2350   32.3160 H   0  0  0  0  0  0  0  0  0  0  0  0
    0.5650  -18.6920   35.6390 H   0  0  0  0  0  0  0  0  0  0  0  0
   -1.4170  -17.9760   35.3500 H   0  0  0  0  0  0  0  0  0  0  0  0
   -1.0450  -18.2130   32.6250 H   0  0  0  0  0  0  0  0  0  0  0  0
   -2.5250  -18.2270   33.1560 H   0  0  0  0  0  0  0  0  0  0  0  0
   -0.8050  -16.0530   32.9380 H   0  0  0  0  0  0  0  0  0  0  0  0
   -0.9590  -15.9590   35.2990 H   0  0  0  0  0  0  0  0  0  0  0  0
   -2.5360  -15.8690   35.1830 H   0  0  0  0  0  0  0  0  0  0  0  0
   -1.6330  -14.6870   34.6390 H   0  0  0  0  0  0  0  0  0  0  0  0
   -3.0760  -14.9260   32.8570 H   0  0  0  0  0  0  0  0  0  0  0  0
   -3.5280  -16.4010   32.4970 H   0  0  0  0  0  0  0  0  0  0  0  0
   -2.4750  -15.6500   31.5830 H   0  0  0  0  0  0  0  0  0  0  0  0
   -2.6010  -19.6690   35.5950 H   0  0  0  0  0  0  0  0  0  0  0  0
   -3.3620  -20.3460   33.9220 H   0  0  0  0  0  0  0  0  0  0  0  0
   -0.5900  -21.4990   34.8640 H   0  0  0  0  0  0  0  0  0  0  0  0
   -0.3090  -20.5650   36.1100 H   0  0  0  0  0  0  0  0  0  0  0  0
   -2.7570  -21.9260   36.1430 H   0  0  0  0  0  0  0  0  0  0  0  0
   -3.7280  -21.8930   38.4670 H   0  0  0  0  0  0  0  0  0  0  0  0
   -2.4700  -20.2480   40.1740 H   0  0  0  0  0  0  0  0  0  0  0  0
   -0.7750  -22.7170   42.2130 H   0  0  0  0  0  0  0  0  0  0  0  0
   -0.8020  -20.0190   41.5930 H   0  0  0  0  0  0  0  0  0  0  0  0
   -0.6930  -20.4800   43.1110 H   0  0  0  0  0  0  0  0  0  0  0  0
    1.1740  -21.1370   41.1050 H   0  0  0  0  0  0  0  0  0  0  0  0
    1.2780  -21.9170   43.8140 H   0  0  0  0  0  0  0  0  0  0  0  0
    2.5300  -22.0490   42.8530 H   0  0  0  0  0  0  0  0  0  0  0  0
    1.2170  -22.8860   42.5620 H   0  0  0  0  0  0  0  0  0  0  0  0
    1.3200  -18.8110   41.9570 H   0  0  0  0  0  0  0  0  0  0  0  0
    1.9630  -19.4620   43.2500 H   0  0  0  0  0  0  0  0  0  0  0  0
    2.6800  -19.6140   41.8460 H   0  0  0  0  0  0  0  0  0  0  0  0
   -4.8750  -20.3720   39.9470 H   0  0  0  0  0  0  0  0  0  0  0  0
   -3.9630  -20.6780   42.6150 H   0  0  0  0  0  0  0  0  0  0  0  0
   -5.4180  -20.1650   42.2580 H   0  0  0  0  0  0  0  0  0  0  0  0
   -4.1540  -19.2950   41.8670 H   0  0  0  0  0  0  0  0  0  0  0  0
   -5.1250  -22.6880   39.7850 H   0  0  0  0  0  0  0  0  0  0  0  0
   -6.0770  -22.1140   40.9130 H   0  0  0  0  0  0  0  0  0  0  0  0
   -4.7260  -22.8400   41.3110 H   0  0  0  0  0  0  0  0  0  0  0  0
   -1.5780  -23.7830   37.2340 H   0  0  0  0  0  0  0  0  0  0  0  0
   -1.5960  -23.7700   35.6500 H   0  0  0  0  0  0  0  0  0  0  0  0
   -0.3130  -23.2670   36.4310 H   0  0  0  0  0  0  0  0  0  0  0  0
    1.2860  -17.7230   31.6930 N   0  0  0  0  0  0  0  0  0  0  0  0
    0.3370  -18.7190   34.8100 N   0  0  0  0  0  0  0  0  0  0  0  0
   -3.0070  -21.5380   38.7750 N   0  0  0  0  0  0  0  0  0  0  0  0
   -1.1000  -22.0120   41.8430 N   0  0  0  0  0  0  0  0  0  0  0  0
    1.8120  -15.1050   29.4830 N   0  0  0  0  0  2  0  0  0  0  0  0
   -1.1310  -15.1940   29.2820 O   0  0  0  0  0  0  0  0  0  0  0  0
   -2.5190  -20.3920   33.8300 O   0  0  0  0  0  0  0  0  0  0  0  0
   -2.5600  -23.3020   40.7400 O   0  0  0  0  0  1  0  0  0  0  0  0
   -0.8210  -20.9330   38.3680 O   0  0  0  0  0  1  0  0  0  0  0  0
    2.5400  -18.8890   34.5330 O   0  0  0  0  0  1  0  0  0  0  0  0
    2.1630  -18.3350   29.6130 O   0  0  0  0  0  1  0  0  0  0  0  0
    1.1340  -14.3250   28.6420 O   0  0  0  0  0  0  0  0  0  0  0  0
    4.5420  -19.7880   32.8590 S   0  0  0  0  0  0  0  0  0  0  0  0
  1  4  1  0
  1 30  1  0
  1 86  1  0
  1 92  1  0
  2  3  1  0
  2 31  1  0
  2 32  1  0
  2 86  1  0
  3  4  1  0
  3 33  1  0
  3 34  1  0
  4  5  1  0
  4 35  1  0
  5  6  1  0
  5 85  1  0
  6 81  1  0
  6 91  1  0
  7  8  1  0
  7 10  1  0
  7 37  1  0
  7 81  1  0
  8 38  1  0
  8 39  1  0
  8 93  1  0
  9 40  1  0
  9 41  1  0
  9 42  1  0
  9 93  1  0
 10 82  1  0
 10 90  1  0
 11 12  1  0
 11 16  1  0
 11 44  1  0
 11 82  1  0
 12 13  1  0
 12 45  1  0
 12 46  1  0
 13 14  1  0
 13 15  1  0
 13 47  1  0
 14 48  1  0
 14 49  1  0
 14 50  1  0
 15 51  1  0
 15 52  1  0
 15 53  1  0
 16 17  1  0
 16 54  1  0
 16 87  1  0
 17 18  1  0
 17 56  1  0
 17 57  1  0
 18 19  1  0
 18 29  1  0
 18 58  1  0
 19 83  1  0
 19 89  1  0
 20 21  1  0
 20 26  1  0
 20 60  1  0
 20 83  1  0
 21 84  1  0
 21 88  1  0
 22 23  1  0
 22 62  1  0
 22 63  1  0
 22 84  1  0
 23 24  1  0
 23 25  1  0
 23 64  1  0
 24 65  1  0
 24 66  1  0
 24 67  1  0
 25 68  1  0
 25 69  1  0
 25 70  1  0
 26 27  1  0
 26 28  1  0
 26 71  1  0
 27 72  1  0
 27 73  1  0
 27 74  1  0
 28 75  1  0
 28 76  1  0
 28 77  1  0
 29 78  1  0
 29 79  1  0
 29 80  1  0
 36 81  1  0
 43 82  1  0
 55 87  1  0
 59 83  1  0
 61 84  1  0
 85 92  1  0
M  END
$$$$
