6dmi_A_5T5_504
     RDKit          3D

 84295  0  0  0  0  0  0  0  0999 V2000
  -19.1920   39.7270   92.7000 C   0  0  0  0  0  8  0  0  0  0  0  0
  -18.9490   39.3580   92.9100 C   0  0  0  0  0  9  0  0  0  0  0  0
  -18.7270   39.2130   93.1360 C   0  0  0  0  0  9  0  0  0  0  0  0
  -17.3270   38.8680   94.2590 C   0  0  0  0  0  9  0  0  0  0  0  0
  -17.2350   38.0490   94.2700 C   0  0  0  0  0  9  0  0  0  0  0  0
  -16.7330   38.4540   94.5670 C   0  0  0  0  0 11  0  0  0  0  0  0
  -15.4800   33.8520   96.1550 C   0  0  0  0  0  5  0  0  0  0  0  0
  -15.2100   35.1710   96.7550 C   0  0  0  0  0  6  0  0  0  0  0  0
  -13.9480   35.9630   97.9420 C   0  0  0  0  0  0  0  0  0  0  0  0
  -20.7470   41.5830   89.2230 C   0  0  0  0  0  8  0  0  0  0  0  0
  -20.6050   41.4090   89.4870 C   0  0  0  0  0  8  0  0  0  0  0  0
  -20.5280   41.2350   89.8950 C   0  0  0  0  0  6  0  0  0  0  0  0
  -17.9640   37.8830   95.4450 C   0  0  0  0  0  8  0  0  0  0  0  0
  -16.0050   38.4270   94.2720 C   0  0  0  0  0  7  0  0  0  0  0  0
  -15.3690   38.4610   94.8420 C   0  0  0  0  0  0  0  0  0  0  0  0
  -18.2180   38.4190   95.2310 C   0  0  0  0  0  6  0  0  0  0  0  0
  -17.6040   37.6870   95.3320 C   0  0  0  0  0  9  0  0  0  0  0  0
  -16.2310   37.1530   93.9640 C   0  0  0  0  0  5  0  0  0  0  0  0
  -19.9040   39.7360   91.3480 C   0  0  0  0  0  7  0  0  0  0  0  0
  -19.6900   39.5880   91.5990 C   0  0  0  0  0  8  0  0  0  0  0  0
  -19.5560   39.3810   91.8710 C   0  0  0  0  0 10  0  0  0  0  0  0
  -22.8080   42.1240   90.2770 C   0  0  0  0  0  7  0  0  0  0  0  0
  -22.3440   42.3350   90.8210 C   0  0  0  0  0  7  0  0  0  0  0  0
  -22.1690   42.1920   91.3340 C   0  0  0  0  0  6  0  0  0  0  0  0
  -16.6790   35.9110   95.9740 C   0  0  0  0  0  7  0  0  0  0  0  0
  -16.4420   37.1130   96.2200 C   0  0  0  0  0  9  0  0  0  0  0  0
  -15.7390   36.9260   96.6420 C   0  0  0  0  0  7  0  0  0  0  0  0
  -21.0110   42.5070   88.2750 C   0  0  0  0  0 10  0  0  0  0  0  0
  -20.9130   42.2800   88.5010 C   0  0  0  0  0 10  0  0  0  0  0  0
  -20.8230   42.1540   88.9450 C   0  0  0  0  0 10  0  0  0  0  0  0
  -17.6880   36.8110   96.2980 C   0  0  0  0  0  6  0  0  0  0  0  0
  -15.5490   37.5550   95.2510 C   0  0  0  0  0  8  0  0  0  0  0  0
  -14.8630   37.6950   95.8810 C   0  0  0  0  0  0  0  0  0  0  0  0
  -17.7660   37.5390   96.2150 C   0  0  0  0  0  6  0  0  0  0  0  0
  -17.1060   36.9180   96.3760 C   0  0  0  0  0  8  0  0  0  0  0  0
  -15.9570   36.0870   94.8110 C   0  0  0  0  0  3  0  0  0  0  0  0
  -22.1800   43.2540   88.3200 C   0  0  0  0  0  6  0  0  0  0  0  0
  -21.9400   43.1950   88.6720 C   0  0  0  0  0  7  0  0  0  0  0  0
  -21.7940   43.1080   89.1960 C   0  0  0  0  0  8  0  0  0  0  0  0
  -17.7240   39.8230   93.1220 C   0  0  0  0  0 12  0  0  0  0  0  0
  -17.4820   39.2170   93.3040 C   0  0  0  0  0 11  0  0  0  0  0  0
  -17.2310   39.3280   93.4210 C   0  0  0  0  0 12  0  0  0  0  0  0
  -19.6940   38.4140   92.0870 C   0  0  0  0  0  8  0  0  0  0  0  0
  -19.6510   38.1870   92.2120 C   0  0  0  0  0  7  0  0  0  0  0  0
  -19.3630   37.9830   92.4620 C   0  0  0  0  0  5  0  0  0  0  0  0
  -21.3340   40.3230   91.3090 C   0  0  0  0  0  8  0  0  0  0  0  0
  -20.9650   40.4330   91.7650 C   0  0  0  0  0 10  0  0  0  0  0  0
  -20.8380   40.1830   92.1360 C   0  0  0  0  0  9  0  0  0  0  0  0
  -16.1190   40.6220   91.7140 C   0  0  0  0  0 10  0  0  0  0  0  0
  -15.8820   40.2090   91.9890 C   0  0  0  0  0 11  0  0  0  0  0  0
  -15.6670   40.2120   92.0180 C   0  0  0  0  0 11  0  0  0  0  0  0
  -21.6400   41.3840   90.2300 C   0  0  0  0  0 10  0  0  0  0  0  0
  -21.3150   41.4280   90.6480 C   0  0  0  0  0 10  0  0  0  0  0  0
  -21.1940   41.2430   91.0860 C   0  0  0  0  0  9  0  0  0  0  0  0
  -17.3660   41.3320   93.4620 C   0  0  0  0  0  6  0  0  0  0  0  0
  -16.9650   40.5760   93.9390 C   0  0  0  0  0  7  0  0  0  0  0  0
  -16.9190   40.8400   93.7800 C   0  0  0  0  0  7  0  0  0  0  0  0
  -20.1080   42.4140   86.9190 Cl  0  0  0  0  0  5  0  0  0  0  0  0
  -20.0770   42.3110   87.3350 Cl  0  0  0  0  0  6  0  0  0  0  0  0
  -19.9760   42.9170   86.8880 Cl  0  0  0  0  0  4  0  0  0  0  0  0
  -14.3150   33.5990   96.8400 F   0  0  0  0  0  2  0  0  0  0  0  0
  -14.1820   34.9390   97.6370 F   0  0  0  0  0  5  0  0  0  0  0  0
  -13.3290   35.4050   96.8640 F   0  0  0  0  0  2  0  0  0  0  0  0
  -16.1730   32.6970   95.9970 F   0  0  0  0  0  2  0  0  0  0  0  0
  -15.9440   34.0290   96.5060 F   0  0  0  0  0  4  0  0  0  0  0  0
  -13.3840   37.1500   98.3140 F   0  0  0  0  0  0  0  0  0  0  0  0
  -23.0670   43.0430   89.3180 N   0  0  0  0  0  6  0  0  0  0  0  0
  -22.6360   43.2020   89.8290 N   0  0  0  0  0  7  0  0  0  0  0  0
  -22.4440   43.1080   90.3810 N   0  0  0  0  0  6  0  0  0  0  0  0
  -15.1410   40.4960   90.6410 N   0  0  0  0  0  5  0  0  0  0  0  0
  -14.9570   40.2770   90.8630 N   0  0  0  0  0  5  0  0  0  0  0  0
  -14.7880   40.2050   90.8620 N   0  0  0  0  0  5  0  0  0  0  0  0
  -16.9620   39.4920   92.1330 N   0  0  0  0  0  8  0  0  0  0  0  0
  -16.7680   39.0530   92.2360 N   0  0  0  0  0  7  0  0  0  0  0  0
  -16.5620   39.0850   92.3450 N   0  0  0  0  0  8  0  0  0  0  0  0
  -16.3510   41.7330   92.3930 O   0  0  0  0  0  7  0  0  0  0  0  0
  -16.0240   41.1650   92.8910 O   0  0  0  0  0  8  0  0  0  0  0  0
  -15.7560   41.2170   92.8720 O   0  0  0  0  0  8  0  0  0  0  0  0
  -22.1660   39.9610   92.0630 O   0  0  0  0  0  5  0  0  0  0  0  0
  -21.6470   40.3220   92.7240 O   0  0  0  0  0  5  0  0  0  0  0  0
  -21.5070   39.9930   93.0960 O   0  0  0  0  0  4  0  0  0  0  0  0
  -16.3220   34.7980   96.7800 O   0  0  0  0  0  5  0  0  0  0  0  0
  -16.0350   36.2180   97.2350 O   0  0  0  0  0  7  0  0  0  0  0  0
  -15.3280   36.1130   97.7230 O   0  0  0  0  0  5  0  0  0  0  0  0
  1  2  1  0
  1  3  1  0
  1 19  1  0
  1 20  1  0
  1 21  1  0
  1 40  1  0
  1 43  1  0
  1 44  1  0
  2  3  1  0
  2 20  1  0
  2 21  1  0
  2 40  1  0
  2 41  1  0
  2 43  1  0
  2 44  1  0
  2 45  1  0
  3 21  1  0
  3 40  1  0
  3 41  1  0
  3 42  1  0
  3 43  1  0
  3 44  1  0
  3 45  1  0
  4  5  1  0
  4  6  1  0
  4 13  1  0
  4 14  1  0
  4 16  1  0
  4 17  1  0
  4 40  1  0
  4 41  1  0
  4 42  1  0
  5  6  1  0
  5 13  1  0
  5 14  1  0
  5 16  1  0
  5 17  1  0
  5 18  1  0
  5 41  1  0
  5 42  1  0
  6 13  1  0
  6 14  1  0
  6 15  1  0
  6 16  1  0
  6 17  1  0
  6 18  1  0
  6 32  1  0
  6 41  1  0
  6 42  1  0
  7  8  1  0
  7 61  1  0
  7 64  1  0
  7 65  1  0
  7 82  1  0
  8 62  1  0
  8 65  1  0
  8 82  1  0
  8 83  1  0
  8 84  1  0
  9 62  1  0
  9 63  1  0
  9 66  1  0
  9 84  1  0
 10 11  1  0
 10 12  1  0
 10 28  1  0
 10 29  1  0
 10 30  1  0
 10 52  1  0
 10 53  1  0
 10 59  1  0
 11 12  1  0
 11 28  1  0
 11 29  1  0
 11 30  1  0
 11 52  1  0
 11 53  1  0
 11 54  1  0
 12 30  1  0
 12 52  1  0
 12 53  1  0
 12 54  1  0
 13 16  1  0
 13 17  1  0
 13 31  1  0
 13 34  1  0
 13 35  1  0
 14 15  1  0
 14 18  1  0
 14 32  1  0
 14 42  1  0
 15 32  1  0
 15 33  1  0
 16 17  1  0
 16 34  1  0
 17 26  1  0
 17 31  1  0
 17 34  1  0
 17 35  1  0
 18 32  1  0
 18 36  1  0
 19 20  1  0
 19 21  1  0
 19 43  1  0
 19 46  1  0
 19 47  1  0
 19 48  1  0
 20 21  1  0
 20 43  1  0
 20 44  1  0
 20 47  1  0
 20 48  1  0
 21 43  1  0
 21 44  1  0
 21 45  1  0
 21 47  1  0
 21 48  1  0
 22 23  1  0
 22 24  1  0
 22 52  1  0
 22 53  1  0
 22 67  1  0
 22 68  1  0
 22 69  1  0
 23 24  1  0
 23 52  1  0
 23 53  1  0
 23 54  1  0
 23 68  1  0
 23 69  1  0
 24 52  1  0
 24 53  1  0
 24 54  1  0
 24 69  1  0
 25 26  1  0
 25 27  1  0
 25 31  1  0
 25 35  1  0
 25 36  1  0
 25 82  1  0
 25 83  1  0
 26 27  1  0
 26 31  1  0
 26 32  1  0
 26 33  1  0
 26 34  1  0
 26 35  1  0
 26 83  1  0
 27 32  1  0
 27 33  1  0
 27 35  1  0
 27 83  1  0
 27 84  1  0
 28 29  1  0
 28 30  1  0
 28 37  1  0
 28 38  1  0
 28 39  1  0
 28 58  1  0
 28 59  1  0
 28 60  1  0
 29 30  1  0
 29 37  1  0
 29 38  1  0
 29 39  1  0
 29 58  1  0
 29 59  1  0
 29 60  1  0
 30 38  1  0
 30 39  1  0
 30 52  1  0
 30 58  1  0
 30 59  1  0
 31 34  1  0
 31 35  1  0
 32 33  1  0
 32 36  1  0
 34 35  1  0
 35 83  1  0
 37 38  1  0
 37 39  1  0
 37 67  1  0
 37 68  1  0
 38 39  1  0
 38 67  1  0
 38 68  1  0
 39 67  1  0
 39 68  1  0
 39 69  1  0
 40 41  1  0
 40 42  1  0
 40 55  1  0
 40 56  1  0
 40 57  1  0
 40 73  1  0
 40 74  1  0
 40 75  1  0
 41 42  1  0
 41 56  1  0
 41 73  1  0
 41 74  1  0
 41 75  1  0
 42 56  1  0
 42 57  1  0
 42 73  1  0
 42 74  1  0
 42 75  1  0
 43 44  1  0
 43 45  1  0
 44 45  1  0
 46 47  1  0
 46 48  1  0
 46 52  1  0
 46 53  1  0
 46 54  1  0
 46 79  1  0
 46 80  1  0
 47 48  1  0
 47 53  1  0
 47 54  1  0
 47 79  1  0
 47 80  1  0
 47 81  1  0
 48 54  1  0
 48 79  1  0
 48 80  1  0
 48 81  1  0
 49 50  1  0
 49 51  1  0
 49 70  1  0
 49 71  1  0
 49 72  1  0
 49 73  1  0
 49 75  1  0
 49 76  1  0
 49 77  1  0
 49 78  1  0
 50 51  1  0
 50 70  1  0
 50 71  1  0
 50 72  1  0
 50 73  1  0
 50 74  1  0
 50 75  1  0
 50 76  1  0
 50 77  1  0
 50 78  1  0
 51 70  1  0
 51 71  1  0
 51 72  1  0
 51 73  1  0
 51 74  1  0
 51 75  1  0
 51 76  1  0
 51 77  1  0
 51 78  1  0
 52 53  1  0
 52 54  1  0
 53 54  1  0
 55 56  1  0
 55 57  1  0
 55 76  1  0
 55 77  1  0
 55 78  1  0
 56 57  1  0
 56 77  1  0
 56 78  1  0
 57 76  1  0
 57 77  1  0
 57 78  1  0
 58 59  1  0
 58 60  1  0
 59 60  1  0
 61 62  1  0
 62 63  1  0
 62 84  1  0
 64 65  1  0
 65 82  1  0
 67 68  1  0
 67 69  1  0
 68 69  1  0
 70 71  1  0
 70 72  1  0
 71 72  1  0
 73 74  1  0
 73 75  1  0
 74 75  1  0
 76 77  1  0
 76 78  1  0
 77 78  1  0
 79 80  1  0
 79 81  1  0
 80 81  1  0
 82 83  1  0
 83 84  1  0
M  END
$$$$
