6e3z_B_HRV_401
     RDKit          3D

 30 32  0  0  0  0  0  0  0  0999 V2000
  -16.3370  -91.3110   12.3270 C   0  0  0  0  0  1  0  0  0  0  0  0
  -14.6190  -94.0670   12.8380 C   0  0  0  0  0  0  0  0  0  0  0  0
  -15.1110  -92.3620   10.3900 C   0  0  0  0  0  3  0  0  0  0  0  0
  -15.2810  -93.0020    9.1640 C   0  0  0  0  0  2  0  0  0  0  0  0
  -14.3330  -92.8810    8.1500 C   0  0  0  0  0  3  0  0  0  0  0  0
  -13.6410  -93.9690    6.0440 C   0  0  0  0  0  3  0  0  0  0  0  0
  -16.2140  -92.5360   11.4510 C   0  0  0  0  0  0  0  0  0  0  0  0
  -14.1820  -94.8070    4.9620 C   0  0  0  0  0  3  0  0  0  0  0  0
  -15.9820  -95.1380    3.5620 C   0  0  0  0  0  2  0  0  0  0  0  0
  -15.3450  -96.1920    2.9270 C   0  0  0  0  0  3  0  0  0  0  0  0
  -14.0680  -96.5600    3.3490 C   0  0  0  0  0  2  0  0  0  0  0  0
  -13.4620  -95.8580    4.3920 C   0  0  0  0  0  3  0  0  0  0  0  0
  -13.1860  -92.1070    8.3570 C   0  0  0  0  0  2  0  0  0  0  0  0
  -13.0060  -91.4630    9.5870 C   0  0  0  0  0  2  0  0  0  0  0  0
  -13.9640  -91.5890   10.6000 C   0  0  0  0  0  3  0  0  0  0  0  0
  -18.2340  -93.7350   10.5380 C   0  0  0  0  0  3  0  0  0  0  0  0
  -17.7590  -94.9590   11.2200 C   0  0  0  0  0  2  0  0  0  0  0  0
  -16.0270  -93.8190   12.3000 C   0  0  0  0  0  3  0  0  0  0  0  0
  -16.1330  -97.0200    1.6370 Cl  0  0  0  0  0  0  0  0  0  0  0  0
  -11.8690  -96.3160    4.9120 Cl  0  0  0  0  0  0  0  0  0  0  0  0
  -14.6490  -95.1360   13.6700 F   0  0  0  0  0  0  0  0  0  0  0  0
  -13.6820  -94.3510   11.8870 F   0  0  0  0  0  0  0  0  0  0  0  0
  -14.1710  -93.0070   13.5530 F   0  0  0  0  0  0  0  0  0  0  0  0
  -13.7860  -90.9750   11.7880 F   0  0  0  0  0  0  0  0  0  0  0  0
  -14.5960  -93.5620    6.9500 N   0  0  0  0  0  2  0  0  0  0  0  0
  -15.4210  -94.4360    4.5730 N   0  0  0  0  0  2  0  0  0  0  0  0
  -17.5100  -92.6300   10.6730 N   0  0  0  0  0  2  0  0  0  0  0  0
  -19.3520  -93.8280    9.8420 N   0  0  0  0  0  1  0  0  0  0  0  0
  -12.4630  -93.6330    6.0090 O   0  0  0  0  0  1  0  0  0  0  0  0
  -16.3430  -94.8970   11.4210 O   0  0  0  0  0  0  0  0  0  0  0  0
  1  7  1  0
  2 18  1  0
  2 21  1  0
  2 22  1  0
  2 23  1  0
  3  4  1  0
  3  7  1  0
  3 15  1  0
  4  5  1  0
  5 13  1  0
  5 25  1  0
  6  8  1  0
  6 25  1  0
  6 29  1  0
  7 18  1  0
  7 27  1  0
  8 12  1  0
  8 26  1  0
  9 10  1  0
  9 26  1  0
 10 11  1  0
 10 19  1  0
 11 12  1  0
 12 20  1  0
 13 14  1  0
 14 15  1  0
 15 24  1  0
 16 17  1  0
 16 27  1  0
 16 28  1  0
 17 30  1  0
 18 30  1  0
M  END
$$$$
