6e3z_C_HRV_402
     RDKit          3D

 30 32  0  0  0  0  0  0  0  0999 V2000
  -74.1040   -4.4260   36.0740 C   0  0  0  0  0  1  0  0  0  0  0  0
  -72.8470   -6.9930   37.1390 C   0  0  0  0  0  0  0  0  0  0  0  0
  -71.6470   -4.5550   35.5320 C   0  0  0  0  0  3  0  0  0  0  0  0
  -70.6670   -4.7860   34.5610 C   0  0  0  0  0  2  0  0  0  0  0  0
  -69.3860   -4.2380   34.6750 C   0  0  0  0  0  3  0  0  0  0  0  0
  -68.9140   -4.6030   32.3810 C   0  0  0  0  0  3  0  0  0  0  0  0
  -73.0430   -5.2010   35.3260 C   0  0  0  0  0  0  0  0  0  0  0  0
  -67.9110   -4.5800   31.3140 C   0  0  0  0  0  3  0  0  0  0  0  0
  -66.7100   -5.7370   29.7400 C   0  0  0  0  0  2  0  0  0  0  0  0
  -66.0780   -4.5750   29.3150 C   0  0  0  0  0  3  0  0  0  0  0  0
  -66.3920   -3.3690   29.9270 C   0  0  0  0  0  2  0  0  0  0  0  0
  -67.3320   -3.3710   30.9490 C   0  0  0  0  0  3  0  0  0  0  0  0
  -69.0630   -3.4350   35.7720 C   0  0  0  0  0  2  0  0  0  0  0  0
  -70.0400   -3.1930   36.7440 C   0  0  0  0  0  2  0  0  0  0  0  0
  -71.3190   -3.7460   36.6290 C   0  0  0  0  0  3  0  0  0  0  0  0
  -73.0290   -6.0990   32.9910 C   0  0  0  0  0  3  0  0  0  0  0  0
  -72.4400   -7.3650   33.4820 C   0  0  0  0  0  2  0  0  0  0  0  0
  -73.1600   -6.7110   35.6830 C   0  0  0  0  0  3  0  0  0  0  0  0
  -64.9170   -4.5990   28.0470 Cl  0  0  0  0  0  0  0  0  0  0  0  0
  -67.7320   -1.8860   31.7170 Cl  0  0  0  0  0  0  0  0  0  0  0  0
  -72.9890   -8.3220   37.3770 F   0  0  0  0  0  0  0  0  0  0  0  0
  -71.5690   -6.6370   37.4480 F   0  0  0  0  0  0  0  0  0  0  0  0
  -73.6790   -6.3420   37.9970 F   0  0  0  0  0  0  0  0  0  0  0  0
  -72.2240   -3.4830   37.5880 F   0  0  0  0  0  0  0  0  0  0  0  0
  -68.4370   -4.4990   33.6700 N   0  0  0  0  0  2  0  0  0  0  0  0
  -67.6320   -5.7710   30.7330 N   0  0  0  0  0  2  0  0  0  0  0  0
  -73.3040   -5.1300   33.8620 N   0  0  0  0  0  2  0  0  0  0  0  0
  -73.2420   -6.0470   31.6860 N   0  0  0  0  0  1  0  0  0  0  0  0
  -70.0870   -4.7110   32.0550 O   0  0  0  0  0  1  0  0  0  0  0  0
  -72.2160   -7.4380   34.8910 O   0  0  0  0  0  0  0  0  0  0  0  0
  1  7  1  0
  2 18  1  0
  2 21  1  0
  2 22  1  0
  2 23  1  0
  3  4  1  0
  3  7  1  0
  3 15  1  0
  4  5  1  0
  5 13  1  0
  5 25  1  0
  6  8  1  0
  6 25  1  0
  6 29  1  0
  7 18  1  0
  7 27  1  0
  8 12  1  0
  8 26  1  0
  9 10  1  0
  9 26  1  0
 10 11  1  0
 10 19  1  0
 11 12  1  0
 12 20  1  0
 13 14  1  0
 14 15  1  0
 15 24  1  0
 16 17  1  0
 16 27  1  0
 16 28  1  0
 17 30  1  0
 18 30  1  0
M  END
$$$$
