6fgy_A_D9W_501
     RDKit          3D

 24 26  0  0  0  0  0  0  0  0999 V2000
   23.9320   81.6460   15.4760 Br  0  0  0  0  0  0  0  0  0  0  0  0
   28.1180   79.6010   19.4950 C   0  0  0  0  0  3  0  0  0  0  0  0
   28.8400   77.4730   20.6210 C   0  0  0  0  0  3  0  0  0  0  0  0
   28.7310   76.0840   20.4370 C   0  0  0  0  0  2  0  0  0  0  0  0
   29.4740   75.1400   21.1920 C   0  0  0  0  0  3  0  0  0  0  0  0
   30.3690   75.6610   22.1760 C   0  0  0  0  0  2  0  0  0  0  0  0
   25.2010   81.0330   16.6680 C   0  0  0  0  0  3  0  0  0  0  0  0
   30.4950   77.0550   22.3820 C   0  0  0  0  0  2  0  0  0  0  0  0
   29.7370   77.9630   21.6100 C   0  0  0  0  0  2  0  0  0  0  0  0
   29.3000   73.6120   20.9190 C   0  0  0  0  0  0  0  0  0  0  0  0
   27.9630   73.0720   18.9900 C   0  0  0  0  0  3  0  0  0  0  0  0
   29.2030   73.0210   18.1030 C   0  0  0  0  0  2  0  0  0  0  0  0
   25.0780   79.7750   17.2970 C   0  0  0  0  0  2  0  0  0  0  0  0
   30.5390   73.1520   20.0860 C   0  0  0  0  0  2  0  0  0  0  0  0
   29.1650   72.7600   22.2160 C   0  0  0  0  0  1  0  0  0  0  0  0
   27.1260   80.1410   18.4990 C   0  0  0  0  0  3  0  0  0  0  0  0
   27.2970   81.4040   17.8870 C   0  0  0  0  0  2  0  0  0  0  0  0
   26.3200   81.8380   16.9700 C   0  0  0  0  0  2  0  0  0  0  0  0
   28.0250   78.2750   19.7700 N   0  0  0  0  0  2  0  0  0  0  0  0
   28.0100   73.3490   20.2560 N   0  0  0  0  0  2  0  0  0  0  0  0
   26.8230   72.8190   18.3960 N   0  0  0  0  0  1  0  0  0  0  0  0
   26.0340   79.3740   18.1820 N   0  0  0  0  0  2  0  0  0  0  0  0
   28.9340   80.3710   19.9880 O   0  0  0  0  0  1  0  0  0  0  0  0
   30.3240   73.6550   18.7590 O   0  0  0  0  0  0  0  0  0  0  0  0
  1  7  1  0
  2 16  1  0
  2 19  1  0
  2 23  1  0
  3  4  1  0
  3  9  1  0
  3 19  1  0
  4  5  1  0
  5  6  1  0
  5 10  1  0
  6  8  1  0
  7 13  1  0
  7 18  1  0
  8  9  1  0
 10 14  1  0
 10 15  1  0
 10 20  1  0
 11 12  1  0
 11 20  1  0
 11 21  1  0
 12 24  1  0
 13 22  1  0
 14 24  1  0
 16 17  1  0
 16 22  1  0
 17 18  1  0
M  END
$$$$
