6jse_A_C6R_508
     RDKit          3D

 33 36  0  0  0  0  0  0  0  0999 V2000
   20.4620   39.5460   -6.6750 C   0  0  0  0  0  3  0  0  0  0  0  0
   21.5320   39.2410   -7.5400 C   0  0  0  0  0  2  0  0  0  0  0  0
   21.6730   40.8220   -4.9460 C   0  0  0  0  0  3  0  0  0  0  0  0
   21.4910   41.5780   -3.6540 C   0  0  0  0  0  3  0  0  0  0  0  0
   20.1890   42.0400   -1.7310 C   0  0  0  0  0  2  0  0  0  0  0  0
   21.1520   42.9520   -1.3030 C   0  0  0  0  0  3  0  0  0  0  0  0
   22.4570   42.4900   -3.2230 C   0  0  0  0  0  2  0  0  0  0  0  0
   17.4640   36.4620   -8.6120 C   0  0  0  0  0  1  0  0  0  0  0  0
   15.7110   37.9720  -10.4160 C   0  0  0  0  0  3  0  0  0  0  0  0
   21.9820   44.4290    0.4900 C   0  0  0  0  0  2  0  0  0  0  0  0
   14.4160   38.0880   -9.8540 C   0  0  0  0  0  2  0  0  0  0  0  0
   13.3150   37.4220  -10.4140 C   0  0  0  0  0  2  0  0  0  0  0  0
   21.3270   38.5410   -8.7330 C   0  0  0  0  0  2  0  0  0  0  0  0
   13.4950   36.6250  -11.5510 C   0  0  0  0  0  2  0  0  0  0  0  0
   14.7690   36.4860  -12.1150 C   0  0  0  0  0  2  0  0  0  0  0  0
   15.8650   37.1540  -11.5500 C   0  0  0  0  0  2  0  0  0  0  0  0
   20.0370   38.1280   -9.0870 C   0  0  0  0  0  3  0  0  0  0  0  0
   18.8680   38.4290   -8.1840 C   0  0  0  0  0  3  0  0  0  0  0  0
   19.1650   39.1380   -7.0070 C   0  0  0  0  0  2  0  0  0  0  0  0
   17.4320   37.9950   -8.5160 C   0  0  0  0  0  0  0  0  0  0  0  0
   16.9420   38.6380   -9.8470 C   0  0  0  0  0  3  0  0  0  0  0  0
   16.8180   40.1800   -9.7560 C   0  0  0  0  0  2  0  0  0  0  0  0
   15.9250   39.4260   -7.1810 C   0  0  0  0  0  3  0  0  0  0  0  0
   19.8520   37.4590  -10.2360 F   0  0  0  0  0  0  0  0  0  0  0  0
   22.9090   43.6240    1.1070 F   0  0  0  0  0  0  0  0  0  0  0  0
   16.5150   38.3150   -7.4010 N   0  0  0  0  0  2  0  0  0  0  0  0
   15.1580   39.5340   -6.0980 N   0  0  0  0  0  1  0  0  0  0  0  0
   20.5930   40.2170   -5.4890 N   0  0  0  0  0  2  0  0  0  0  0  0
   20.3870   41.3810   -2.8850 N   0  0  0  0  0  2  0  0  0  0  0  0
   22.2630   43.1440   -2.0650 N   0  0  0  0  0  2  0  0  0  0  0  0
   22.7950   40.7990   -5.4360 O   0  0  0  0  0  1  0  0  0  0  0  0
   20.9640   43.6230   -0.1190 O   0  0  0  0  0  0  0  0  0  0  0  0
   16.0860   40.7350   -8.2210 S   0  0  0  0  0  0  0  0  0  0  0  0
  1  2  1  0
  1 19  1  0
  1 28  1  0
  2 13  1  0
  3  4  1  0
  3 28  1  0
  3 31  1  0
  4  7  1  0
  4 29  1  0
  5  6  1  0
  5 29  1  0
  6 30  1  0
  6 32  1  0
  7 30  1  0
  8 20  1  0
  9 11  1  0
  9 16  1  0
  9 21  1  0
 10 25  1  0
 10 32  1  0
 11 12  1  0
 12 14  1  0
 13 17  1  0
 14 15  1  0
 15 16  1  0
 17 18  1  0
 17 24  1  0
 18 19  1  0
 18 20  1  0
 20 21  1  0
 20 26  1  0
 21 22  1  0
 22 33  1  0
 23 26  1  0
 23 27  1  0
 23 33  1  0
M  END
$$$$
