6nv7_C_L3J_401
     RDKit          3D

 42 44  0  0  0  0  0  0  0  0999 V2000
   36.6410  -13.3830   99.2900 C   0  0  0  0  0  3  0  0  0  0  0  0
   36.7740  -15.8540   98.4690 C   0  0  0  0  0  3  0  0  0  0  0  0
   35.5100  -16.7100   98.1330 C   0  0  0  0  0  2  0  0  0  0  0  0
   38.0190  -16.1970   97.5190 C   0  0  0  0  0  2  0  0  0  0  0  0
   40.0340  -15.2640   98.7650 C   0  0  0  0  0  3  0  0  0  0  0  0
   41.4180  -14.5450   98.5250 C   0  0  0  0  0  3  0  0  0  0  0  0
   42.6350  -15.4770   98.7220 C   0  0  0  0  0  1  0  0  0  0  0  0
   40.2040  -16.5460   99.6810 C   0  0  0  0  0  3  0  0  0  0  0  0
   40.8060  -18.8820  100.4670 C   0  0  0  0  0  2  0  0  0  0  0  0
   41.3950  -20.2940  100.1160 C   0  0  0  0  0  3  0  0  0  0  0  0
   42.7520  -20.2060   99.4220 C   0  0  0  0  0  1  0  0  0  0  0  0
   41.5430  -21.1880  101.3840 C   0  0  0  0  0  1  0  0  0  0  0  0
   36.0550  -12.0060   99.3630 C   0  0  0  0  0  3  0  0  0  0  0  0
   34.6660  -11.8990   99.1220 C   0  0  0  0  0  2  0  0  0  0  0  0
   34.0220  -10.6530   99.1950 C   0  0  0  0  0  3  0  0  0  0  0  0
   32.5090  -10.5530   98.9030 C   0  0  0  0  0  2  0  0  0  0  0  0
   31.5890  -11.7930   98.9170 C   0  0  0  0  0  2  0  0  0  0  0  0
   31.4440  -12.5690   97.6060 C   0  0  0  0  0  2  0  0  0  0  0  0
   31.1190  -14.0650   97.6590 C   0  0  0  0  0  2  0  0  0  0  0  0
   32.0500  -14.9190   98.5250 C   0  0  0  0  0  3  0  0  0  0  0  0
   31.7450  -15.2390   99.8600 C   0  0  0  0  0  2  0  0  0  0  0  0
   32.6230  -16.0140  100.6140 C   0  0  0  0  0  2  0  0  0  0  0  0
   33.8210  -16.4870  100.0750 C   0  0  0  0  0  2  0  0  0  0  0  0
   34.1880  -16.2020   98.7490 C   0  0  0  0  0  3  0  0  0  0  0  0
   33.2660  -15.4120   98.0330 C   0  0  0  0  0  2  0  0  0  0  0  0
   34.8020   -9.5460   99.5450 C   0  0  0  0  0  2  0  0  0  0  0  0
   36.1940   -9.6170   99.8120 C   0  0  0  0  0  3  0  0  0  0  0  0
   37.8300   -8.4990  101.3560 C   0  0  0  0  0  2  0  0  0  0  0  0
   37.0450   -8.7220  102.7020 C   0  0  0  0  0  2  0  0  0  0  0  0
   37.7580   -8.3390  103.9930 C   0  0  0  0  0  1  0  0  0  0  0  0
   35.6400   -6.0310  100.2160 C   0  0  0  0  0  1  0  0  0  0  0  0
   36.7780  -10.8810   99.7180 C   0  0  0  0  0  2  0  0  0  0  0  0
   36.2730  -14.4500   98.4980 N   0  0  0  0  0  2  0  0  0  0  0  0
   39.1760  -15.3030   97.5600 N   0  0  0  0  0  2  0  0  0  0  0  0
   40.7140  -17.8200   99.3860 N   0  0  0  0  0  2  0  0  0  0  0  0
   36.9370   -8.4360  100.1590 N   0  0  0  0  0  0  0  0  0  0  0  0
   37.6060  -13.5720  100.0990 O   0  0  0  0  0  1  0  0  0  0  0  0
   41.4650  -13.5020   99.4330 O   0  0  0  0  0  1  0  0  0  0  0  0
   39.8410  -16.3480  100.8720 O   0  0  0  0  0  1  0  0  0  0  0  0
   38.0080   -6.3290   99.2830 O   0  0  0  0  0  1  0  0  0  0  0  0
   36.1540   -7.2600   98.0620 O   0  0  0  0  0  1  0  0  0  0  0  0
   36.7660   -7.0040   99.3120 S   0  0  0  0  0  4  0  0  0  0  0  0
  1 13  1  0
  1 33  1  0
  1 37  1  0
  2  3  1  0
  2  4  1  0
  2 33  1  0
  3 24  1  0
  4 34  1  0
  5  6  1  0
  5  8  1  0
  5 34  1  0
  6  7  1  0
  6 38  1  0
  8 35  1  0
  8 39  1  0
  9 10  1  0
  9 35  1  0
 10 11  1  0
 10 12  1  0
 13 14  1  0
 13 32  1  0
 14 15  1  0
 15 16  1  0
 15 26  1  0
 16 17  1  0
 17 18  1  0
 18 19  1  0
 19 20  1  0
 20 21  1  0
 20 25  1  0
 21 22  1  0
 22 23  1  0
 23 24  1  0
 24 25  1  0
 26 27  1  0
 27 32  1  0
 27 36  1  0
 28 29  1  0
 28 36  1  0
 29 30  1  0
 31 42  1  0
 36 42  1  0
 40 42  1  0
 41 42  1  0
M  END
$$$$
