6nv7_A_L3J_401
     RDKit          3D

 42 44  0  0  0  0  0  0  0  0999 V2000
   -1.0700  -18.6950   33.7670 C   0  0  0  0  0  3  0  0  0  0  0  0
   -3.5660  -18.6160   34.5310 C   0  0  0  0  0  3  0  0  0  0  0  0
   -4.5980  -17.5940   33.9280 C   0  0  0  0  0  2  0  0  0  0  0  0
   -4.2200  -20.0560   34.8720 C   0  0  0  0  0  2  0  0  0  0  0  0
   -2.5540  -21.2850   36.3330 C   0  0  0  0  0  3  0  0  0  0  0  0
   -1.9770  -22.7090   36.6040 C   0  0  0  0  0  3  0  0  0  0  0  0
   -2.4620  -23.3260   37.9380 C   0  0  0  0  0  1  0  0  0  0  0  0
   -3.1560  -20.6040   37.6320 C   0  0  0  0  0  3  0  0  0  0  0  0
   -4.8010  -20.1280   39.5430 C   0  0  0  0  0  2  0  0  0  0  0  0
   -4.9910  -20.9700   40.8570 C   0  0  0  0  0  3  0  0  0  0  0  0
   -6.2530  -21.8350   40.8110 C   0  0  0  0  0  1  0  0  0  0  0  0
   -5.0160  -20.0870   42.1400 C   0  0  0  0  0  1  0  0  0  0  0  0
    0.0450  -18.5410   32.7800 C   0  0  0  0  0  3  0  0  0  0  0  0
   -0.1380  -17.5710   31.7670 C   0  0  0  0  0  2  0  0  0  0  0  0
    0.8700  -17.3450   30.8110 C   0  0  0  0  0  3  0  0  0  0  0  0
    0.6570  -16.3020   29.7040 C   0  0  0  0  0  2  0  0  0  0  0  0
   -0.4430  -15.2430   29.7840 C   0  0  0  0  0  2  0  0  0  0  0  0
   -1.8270  -15.6380   29.2480 C   0  0  0  0  0  2  0  0  0  0  0  0
   -3.0480  -14.9250   29.8120 C   0  0  0  0  0  2  0  0  0  0  0  0
   -3.1970  -15.0070   31.3360 C   0  0  0  0  0  3  0  0  0  0  0  0
   -2.7580  -13.9890   32.1930 C   0  0  0  0  0  2  0  0  0  0  0  0
   -2.9150  -14.1140   33.5810 C   0  0  0  0  0  2  0  0  0  0  0  0
   -3.4990  -15.2530   34.1450 C   0  0  0  0  0  2  0  0  0  0  0  0
   -3.9560  -16.3120   33.3360 C   0  0  0  0  0  3  0  0  0  0  0  0
   -3.7700  -16.1300   31.9510 C   0  0  0  0  0  2  0  0  0  0  0  0
    2.0540  -18.0950   30.9210 C   0  0  0  0  0  2  0  0  0  0  0  0
    2.2790  -19.0550   31.9290 C   0  0  0  0  0  3  0  0  0  0  0  0
    4.1520  -19.9690   33.3700 C   0  0  0  0  0  2  0  0  0  0  0  0
    4.5210  -18.6420   34.1130 C   0  0  0  0  0  2  0  0  0  0  0  0
    5.2410  -17.5840   33.2960 C   0  0  0  0  0  1  0  0  0  0  0  0
    5.4380  -19.2280   30.1020 C   0  0  0  0  0  1  0  0  0  0  0  0
    1.2430  -19.2390   32.8500 C   0  0  0  0  0  2  0  0  0  0  0  0
   -2.4260  -18.5660   33.5750 N   0  0  0  0  0  2  0  0  0  0  0  0
   -3.3040  -21.1890   35.0570 N   0  0  0  0  0  2  0  0  0  0  0  0
   -4.3410  -20.8770   38.3040 N   0  0  0  0  0  2  0  0  0  0  0  0
    3.5190  -19.7870   31.9990 N   0  0  0  0  0  0  0  0  0  0  0  0
   -0.6810  -18.9740   34.9490 O   0  0  0  0  0  1  0  0  0  0  0  0
   -0.5980  -22.5360   36.6160 O   0  0  0  0  0  1  0  0  0  0  0  0
   -2.4290  -19.6890   38.1030 O   0  0  0  0  0  1  0  0  0  0  0  0
    3.3040  -20.5700   29.6430 O   0  0  0  0  0  1  0  0  0  0  0  0
    5.0370  -21.5650   30.9660 O   0  0  0  0  0  1  0  0  0  0  0  0
    4.2920  -20.4050   30.6340 S   0  0  0  0  0  4  0  0  0  0  0  0
  1 13  1  0
  1 33  1  0
  1 37  1  0
  2  3  1  0
  2  4  1  0
  2 33  1  0
  3 24  1  0
  4 34  1  0
  5  6  1  0
  5  8  1  0
  5 34  1  0
  6  7  1  0
  6 38  1  0
  8 35  1  0
  8 39  1  0
  9 10  1  0
  9 35  1  0
 10 11  1  0
 10 12  1  0
 13 14  1  0
 13 32  1  0
 14 15  1  0
 15 16  1  0
 15 26  1  0
 16 17  1  0
 17 18  1  0
 18 19  1  0
 19 20  1  0
 20 21  1  0
 20 25  1  0
 21 22  1  0
 22 23  1  0
 23 24  1  0
 24 25  1  0
 26 27  1  0
 27 32  1  0
 27 36  1  0
 28 29  1  0
 28 36  1  0
 29 30  1  0
 31 42  1  0
 36 42  1  0
 40 42  1  0
 41 42  1  0
M  END
$$$$
