6nv7_B_L3J_401
     RDKit          3D

 42 44  0  0  0  0  0  0  0  0999 V2000
   10.3370  -19.1920   69.5910 C   0  0  0  0  0  3  0  0  0  0  0  0
   11.3360  -17.0180   68.6010 C   0  0  0  0  0  3  0  0  0  0  0  0
   11.9330  -16.9200   67.1650 C   0  0  0  0  0  2  0  0  0  0  0  0
   10.5570  -15.6950   69.0780 C   0  0  0  0  0  2  0  0  0  0  0  0
   10.3040  -15.8380   71.6190 C   0  0  0  0  0  3  0  0  0  0  0  0
    9.3400  -15.3260   72.7670 C   0  0  0  0  0  3  0  0  0  0  0  0
    9.9590  -14.2440   73.6640 C   0  0  0  0  0  1  0  0  0  0  0  0
   11.7920  -15.3330   71.7560 C   0  0  0  0  0  3  0  0  0  0  0  0
   13.7810  -13.7500   71.8080 C   0  0  0  0  0  2  0  0  0  0  0  0
   14.2070  -12.5040   72.6600 C   0  0  0  0  0  3  0  0  0  0  0  0
   15.7160  -12.2020   72.4980 C   0  0  0  0  0  1  0  0  0  0  0  0
   13.3990  -11.2450   72.3490 C   0  0  0  0  0  1  0  0  0  0  0  0
    9.5730  -20.4920   69.5260 C   0  0  0  0  0  3  0  0  0  0  0  0
    9.6190  -21.2010   68.2990 C   0  0  0  0  0  2  0  0  0  0  0  0
    8.9440  -22.4240   68.1580 C   0  0  0  0  0  3  0  0  0  0  0  0
    8.9860  -23.1910   66.8180 C   0  0  0  0  0  2  0  0  0  0  0  0
   10.0120  -22.8840   65.7280 C   0  0  0  0  0  2  0  0  0  0  0  0
    9.6890  -21.7160   64.7760 C   0  0  0  0  0  2  0  0  0  0  0  0
   10.8330  -20.9320   64.1530 C   0  0  0  0  0  2  0  0  0  0  0  0
   11.8170  -20.2520   65.1230 C   0  0  0  0  0  3  0  0  0  0  0  0
   13.0380  -20.8330   65.4960 C   0  0  0  0  0  2  0  0  0  0  0  0
   13.8920  -20.1680   66.3860 C   0  0  0  0  0  2  0  0  0  0  0  0
   13.5520  -18.9190   66.9200 C   0  0  0  0  0  2  0  0  0  0  0  0
   12.3430  -18.2870   66.5830 C   0  0  0  0  0  3  0  0  0  0  0  0
   11.5240  -19.0060   65.6960 C   0  0  0  0  0  2  0  0  0  0  0  0
    8.2560  -22.9150   69.2680 C   0  0  0  0  0  2  0  0  0  0  0  0
    8.1930  -22.2500   70.5000 C   0  0  0  0  0  3  0  0  0  0  0  0
    8.1810  -22.7990   72.9190 C   0  0  0  0  0  2  0  0  0  0  0  0
    9.3840  -23.8030   72.9990 C   0  0  0  0  0  2  0  0  0  0  0  0
    9.6040  -24.4930   74.3380 C   0  0  0  0  0  1  0  0  0  0  0  0
    6.2190  -25.2310   71.2780 C   0  0  0  0  0  1  0  0  0  0  0  0
    8.8810  -21.0340   70.5940 C   0  0  0  0  0  2  0  0  0  0  0  0
   10.5470  -18.2760   68.5950 N   0  0  0  0  0  2  0  0  0  0  0  0
    9.6780  -15.8380   70.2530 N   0  0  0  0  0  2  0  0  0  0  0  0
   12.3090  -14.0390   71.6640 N   0  0  0  0  0  2  0  0  0  0  0  0
    7.4780  -22.8140   71.5980 N   0  0  0  0  0  0  0  0  0  0  0  0
   10.8410  -18.9230   70.7360 O   0  0  0  0  0  1  0  0  0  0  0  0
    9.0540  -16.4510   73.5220 O   0  0  0  0  0  1  0  0  0  0  0  0
   12.6190  -16.2560   71.9900 O   0  0  0  0  0  1  0  0  0  0  0  0
    5.2600  -23.2890   72.6530 O   0  0  0  0  0  1  0  0  0  0  0  0
    5.3230  -23.1020   70.2640 O   0  0  0  0  0  1  0  0  0  0  0  0
    5.9610  -23.5250   71.4580 S   0  0  0  0  0  4  0  0  0  0  0  0
  1 13  1  0
  1 33  1  0
  1 37  1  0
  2  3  1  0
  2  4  1  0
  2 33  1  0
  3 24  1  0
  4 34  1  0
  5  6  1  0
  5  8  1  0
  5 34  1  0
  6  7  1  0
  6 38  1  0
  8 35  1  0
  8 39  1  0
  9 10  1  0
  9 35  1  0
 10 11  1  0
 10 12  1  0
 13 14  1  0
 13 32  1  0
 14 15  1  0
 15 16  1  0
 15 26  1  0
 16 17  1  0
 17 18  1  0
 18 19  1  0
 19 20  1  0
 20 21  1  0
 20 25  1  0
 21 22  1  0
 22 23  1  0
 23 24  1  0
 24 25  1  0
 26 27  1  0
 27 32  1  0
 27 36  1  0
 28 29  1  0
 28 36  1  0
 29 30  1  0
 31 42  1  0
 36 42  1  0
 40 42  1  0
 41 42  1  0
M  END
$$$$
