6nv9_C_L3M_401
     RDKit          3D

 96 98  0  0  0  0  0  0  0  0999 V2000
   37.6010  -13.2260   98.8450 C   0  0  0  0  0  3  0  0  0  0  0  0
   36.9980  -11.8670   98.8750 C   0  0  0  0  0  3  0  0  0  0  0  0
   35.6100  -11.7420   98.6450 C   0  0  0  0  0  3  0  0  0  0  0  0
   34.9400  -10.5110   98.6910 C   0  0  0  0  0  3  0  0  0  0  0  0
   33.3970  -10.3940   98.4030 C   0  0  0  0  0  0  0  0  0  0  0  0
   32.6020  -11.6840   98.3440 C   0  0  0  0  0  0  0  0  0  0  0  0
   32.4650  -12.4140   97.0110 C   0  0  0  0  0  0  0  0  0  0  0  0
   32.0140  -13.8500   97.2080 C   0  0  0  0  0  0  0  0  0  0  0  0
   32.9590  -14.7040   98.0170 C   0  0  0  0  0  3  0  0  0  0  0  0
   32.6680  -15.0140   99.3710 C   0  0  0  0  0  3  0  0  0  0  0  0
   33.5590  -15.7760  100.1200 C   0  0  0  0  0  3  0  0  0  0  0  0
   34.7580  -16.2420   99.5470 C   0  0  0  0  0  3  0  0  0  0  0  0
   35.0850  -15.9910   98.2070 C   0  0  0  0  0  3  0  0  0  0  0  0
   36.4020  -16.5000   97.6180 C   0  0  0  0  0  0  0  0  0  0  0  0
   37.6450  -15.6670   97.9870 C   0  0  0  0  0  0  0  0  0  0  0  0
   38.9040  -15.8660   97.1040 C   0  0  0  0  0  0  0  0  0  0  0  0
   41.3100  -15.6050   97.7050 C   0  0  0  0  0  0  0  0  0  0  0  0
   41.3270  -16.5630   98.8960 C   0  0  0  0  0  3  0  0  0  0  0  0
   41.8780  -18.7670   99.9680 C   0  0  0  0  0  0  0  0  0  0  0  0
   42.3380  -20.1610   99.5890 C   0  0  0  0  0  0  0  0  0  0  0  0
   42.4990  -21.0100  100.8530 C   0  0  0  0  0  0  0  0  0  0  0  0
   43.6930  -20.1460   98.8860 C   0  0  0  0  0  0  0  0  0  0  0  0
   42.3820  -14.4730   97.8860 C   0  0  0  0  0  0  0  0  0  0  0  0
   43.7280  -14.9700   98.4560 C   0  0  0  0  0  0  0  0  0  0  0  0
   44.8330  -13.8500   98.4190 C   0  0  0  0  0  0  0  0  0  0  0  0
   46.1720  -14.2480   99.0300 C   0  0  0  0  0  0  0  0  0  0  0  0
   34.1690  -15.1950   97.4860 C   0  0  0  0  0  3  0  0  0  0  0  0
   35.7060   -9.3930   99.0280 C   0  0  0  0  0  3  0  0  0  0  0  0
   37.1080   -9.4780   99.2870 C   0  0  0  0  0  3  0  0  0  0  0  0
   38.7570   -8.3970  100.7640 C   0  0  0  0  0  0  0  0  0  0  0  0
   37.9840   -8.8220  102.0390 C   0  0  0  0  0  0  0  0  0  0  0  0
   38.4730   -8.1540  103.3120 C   0  0  0  0  0  0  0  0  0  0  0  0
   37.0360   -7.1250   97.3760 C   0  0  0  0  0  0  0  0  0  0  0  0
   37.6980  -10.7170   99.2330 C   0  0  0  0  0  3  0  0  0  0  0  0
   35.0280  -12.6310   98.3970 H   0  0  0  0  0  0  0  0  0  0  0  0
   32.8600   -9.7040   99.0880 H   0  0  0  0  0  0  0  0  0  0  0  0
   33.2160   -9.8650   97.4330 H   0  0  0  0  0  0  0  0  0  0  0  0
   31.5930  -11.4940   98.7240 H   0  0  0  0  0  0  0  0  0  0  0  0
   33.0040  -12.4130   99.0860 H   0  0  0  0  0  0  0  0  0  0  0  0
   33.3940  -12.4100   96.3960 H   0  0  0  0  0  0  0  0  0  0  0  0
   31.8080  -11.8330   96.3210 H   0  0  0  0  0  0  0  0  0  0  0  0
   30.9740  -13.8000   97.5980 H   0  0  0  0  0  0  0  0  0  0  0  0
   31.8020  -14.2850   96.2020 H   0  0  0  0  0  0  0  0  0  0  0  0
   40.0020  -14.1750   96.8950 H   0  0  0  0  0  0  0  0  0  0  0  0
   31.7520  -14.6500   99.8400 H   0  0  0  0  0  0  0  0  0  0  0  0
   33.3250  -16.0150  101.1620 H   0  0  0  0  0  0  0  0  0  0  0  0
   35.4070  -16.8500  100.1740 H   0  0  0  0  0  0  0  0  0  0  0  0
   36.6450  -17.5510   97.9270 H   0  0  0  0  0  0  0  0  0  0  0  0
   36.3910  -16.6430   96.5070 H   0  0  0  0  0  0  0  0  0  0  0  0
   37.9730  -15.9330   99.0190 H   0  0  0  0  0  0  0  0  0  0  0  0
   38.6440  -15.6880   96.0390 H   0  0  0  0  0  0  0  0  0  0  0  0
   39.2740  -16.8990   97.1630 H   0  0  0  0  0  0  0  0  0  0  0  0
   41.5550  -16.1680   96.7820 H   0  0  0  0  0  0  0  0  0  0  0  0
   42.2170  -18.1450   97.9980 H   0  0  0  0  0  0  0  0  0  0  0  0
   40.8640  -18.8600  100.4240 H   0  0  0  0  0  0  0  0  0  0  0  0
   42.5000  -18.3520  100.7730 H   0  0  0  0  0  0  0  0  0  0  0  0
   41.6170  -20.6700   98.9200 H   0  0  0  0  0  0  0  0  0  0  0  0
   41.6530  -20.9420  101.5440 H   0  0  0  0  0  0  0  0  0  0  0  0
   42.6250  -22.0760  100.6230 H   0  0  0  0  0  0  0  0  0  0  0  0
   43.3820  -20.7440  101.4470 H   0  0  0  0  0  0  0  0  0  0  0  0
   43.6750  -19.7200   97.8710 H   0  0  0  0  0  0  0  0  0  0  0  0
   44.1390  -21.1500   98.7860 H   0  0  0  0  0  0  0  0  0  0  0  0
   44.4570  -19.5900   99.4330 H   0  0  0  0  0  0  0  0  0  0  0  0
   42.5640  -13.9840   96.9170 H   0  0  0  0  0  0  0  0  0  0  0  0
   41.8850  -12.7120   98.4720 H   0  0  0  0  0  0  0  0  0  0  0  0
   43.6000  -15.3740   99.4690 H   0  0  0  0  0  0  0  0  0  0  0  0
   44.0810  -15.8250   97.8520 H   0  0  0  0  0  0  0  0  0  0  0  0
   44.4730  -12.9390   98.9230 H   0  0  0  0  0  0  0  0  0  0  0  0
   45.0260  -13.5260   97.3800 H   0  0  0  0  0  0  0  0  0  0  0  0
   46.0630  -14.6850  100.0380 H   0  0  0  0  0  0  0  0  0  0  0  0
   46.7090  -15.0030   98.4500 H   0  0  0  0  0  0  0  0  0  0  0  0
   46.8670  -13.4120   99.1680 H   0  0  0  0  0  0  0  0  0  0  0  0
   36.4390  -14.1470   97.3520 H   0  0  0  0  0  0  0  0  0  0  0  0
   34.4210  -14.9720   96.4610 H   0  0  0  0  0  0  0  0  0  0  0  0
   35.2260   -8.4180   99.0640 H   0  0  0  0  0  0  0  0  0  0  0  0
   39.2310   -7.4380  101.0540 H   0  0  0  0  0  0  0  0  0  0  0  0
   39.6320   -9.0950  100.6660 H   0  0  0  0  0  0  0  0  0  0  0  0
   38.0090   -9.9120  102.2100 H   0  0  0  0  0  0  0  0  0  0  0  0
   36.9220   -8.5490  101.9340 H   0  0  0  0  0  0  0  0  0  0  0  0
   37.8270   -8.4270  104.1640 H   0  0  0  0  0  0  0  0  0  0  0  0
   39.4830   -8.4430  103.6220 H   0  0  0  0  0  0  0  0  0  0  0  0
   38.4190   -7.0620  103.2840 H   0  0  0  0  0  0  0  0  0  0  0  0
   36.6350   -6.2820   96.7870 H   0  0  0  0  0  0  0  0  0  0  0  0
   37.6900   -7.5700   96.5920 H   0  0  0  0  0  0  0  0  0  0  0  0
   36.1850   -7.8320   97.2500 H   0  0  0  0  0  0  0  0  0  0  0  0
   38.7630  -10.7960   99.4240 H   0  0  0  0  0  0  0  0  0  0  0  0
   39.9550  -14.9460   97.5520 N   0  0  0  0  0  0  0  0  0  0  0  0
   41.8180  -17.8130   98.8490 N   0  0  0  0  0  0  0  0  0  0  0  0
   37.1920  -14.2670   97.9920 N   0  0  0  0  0  0  0  0  0  0  0  0
   37.8450   -8.3240   99.6010 N   0  0  0  0  0  0  0  0  0  0  0  0
   38.5080  -13.4950   99.6670 O   0  0  0  0  0  1  0  0  0  0  0  0
   40.8330  -16.1560   99.9850 O   0  0  0  0  0  1  0  0  0  0  0  0
   41.8300  -13.5780   98.8550 O   0  0  0  0  0  0  0  0  0  0  0  0
   38.8700   -6.1450   98.7840 O   0  0  0  0  0  1  0  0  0  0  0  0
   36.6320   -6.1550   99.5210 O   0  0  0  0  0  1  0  0  0  0  0  0
   37.6550   -6.8790   98.8020 S   0  0  0  0  0  4  0  0  0  0  0  0
  1  2  1  0
  1 89  1  0
  1 91  1  0
  2  3  1  0
  2 34  1  0
  3  4  1  0
  3 35  1  0
  4  5  1  0
  4 28  1  0
  5  6  1  0
  5 36  1  0
  5 37  1  0
  6  7  1  0
  6 38  1  0
  6 39  1  0
  7  8  1  0
  7 40  1  0
  7 41  1  0
  8  9  1  0
  8 42  1  0
  8 43  1  0
  9 10  1  0
  9 27  1  0
 10 11  1  0
 10 45  1  0
 11 12  1  0
 11 46  1  0
 12 13  1  0
 12 47  1  0
 13 14  1  0
 13 27  1  0
 14 15  1  0
 14 48  1  0
 14 49  1  0
 15 16  1  0
 15 50  1  0
 15 89  1  0
 16 51  1  0
 16 52  1  0
 16 87  1  0
 17 18  1  0
 17 23  1  0
 17 53  1  0
 17 87  1  0
 18 88  1  0
 18 92  1  0
 19 20  1  0
 19 55  1  0
 19 56  1  0
 19 88  1  0
 20 21  1  0
 20 22  1  0
 20 57  1  0
 21 58  1  0
 21 59  1  0
 21 60  1  0
 22 61  1  0
 22 62  1  0
 22 63  1  0
 23 24  1  0
 23 64  1  0
 23 93  1  0
 24 25  1  0
 24 66  1  0
 24 67  1  0
 25 26  1  0
 25 68  1  0
 25 69  1  0
 26 70  1  0
 26 71  1  0
 26 72  1  0
 27 74  1  0
 28 29  1  0
 28 75  1  0
 29 34  1  0
 29 90  1  0
 30 31  1  0
 30 76  1  0
 30 77  1  0
 30 90  1  0
 31 32  1  0
 31 78  1  0
 31 79  1  0
 32 80  1  0
 32 81  1  0
 32 82  1  0
 33 83  1  0
 33 84  1  0
 33 85  1  0
 33 96  1  0
 34 86  1  0
 44 87  1  0
 54 88  1  0
 65 93  1  0
 73 89  1  0
 90 96  1  0
 94 96  1  0
 95 96  1  0
M  END
$$$$
