6nv9_B_L3M_401
     RDKit          3D

 96 98  0  0  0  0  0  0  0  0999 V2000
   10.9690  -18.9530   69.4920 C   0  0  0  0  0  3  0  0  0  0  0  0
   10.2100  -20.2360   69.4230 C   0  0  0  0  0  3  0  0  0  0  0  0
   10.2190  -20.9840   68.2340 C   0  0  0  0  0  3  0  0  0  0  0  0
    9.5380  -22.1990   68.0960 C   0  0  0  0  0  3  0  0  0  0  0  0
    9.5590  -23.0090   66.7840 C   0  0  0  0  0  0  0  0  0  0  0  0
   10.5590  -22.5690   65.6890 C   0  0  0  0  0  0  0  0  0  0  0  0
   10.1940  -21.4270   64.7380 C   0  0  0  0  0  0  0  0  0  0  0  0
   11.4230  -20.8220   64.0450 C   0  0  0  0  0  0  0  0  0  0  0  0
   12.3640  -20.0990   64.9790 C   0  0  0  0  0  3  0  0  0  0  0  0
   13.5680  -20.6820   65.3550 C   0  0  0  0  0  3  0  0  0  0  0  0
   14.4300  -20.0090   66.2470 C   0  0  0  0  0  3  0  0  0  0  0  0
   14.0830  -18.7400   66.7700 C   0  0  0  0  0  3  0  0  0  0  0  0
   12.8800  -18.1010   66.4070 C   0  0  0  0  0  3  0  0  0  0  0  0
   12.4940  -16.7270   67.0040 C   0  0  0  0  0  0  0  0  0  0  0  0
   11.9110  -16.8210   68.4280 C   0  0  0  0  0  0  0  0  0  0  0  0
   11.0900  -15.5650   68.9330 C   0  0  0  0  0  0  0  0  0  0  0  0
   10.9510  -14.6770   71.2250 C   0  0  0  0  0  0  0  0  0  0  0  0
   12.4110  -14.6090   71.5900 C   0  0  0  0  0  3  0  0  0  0  0  0
   14.5730  -13.3510   71.9950 C   0  0  0  0  0  0  0  0  0  0  0  0
   15.1990  -11.9400   71.7540 C   0  0  0  0  0  0  0  0  0  0  0  0
   16.6210  -11.8570   72.3910 C   0  0  0  0  0  0  0  0  0  0  0  0
   14.3540  -10.8180   72.3440 C   0  0  0  0  0  0  0  0  0  0  0  0
   10.0880  -14.9760   72.5020 C   0  0  0  0  0  0  0  0  0  0  0  0
   10.5330  -14.2240   73.7280 C   0  0  0  0  0  0  0  0  0  0  0  0
    9.5400  -14.3740   74.9250 C   0  0  0  0  0  0  0  0  0  0  0  0
    9.9900  -13.6640   76.1870 C   0  0  0  0  0  0  0  0  0  0  0  0
   12.0490  -18.8270   65.5330 C   0  0  0  0  0  3  0  0  0  0  0  0
    8.8750  -22.6790   69.2050 C   0  0  0  0  0  3  0  0  0  0  0  0
    8.8250  -21.9840   70.4200 C   0  0  0  0  0  3  0  0  0  0  0  0
    8.8360  -22.4660   72.8440 C   0  0  0  0  0  0  0  0  0  0  0  0
    9.9670  -23.5400   72.9600 C   0  0  0  0  0  0  0  0  0  0  0  0
   10.2430  -23.9910   74.3910 C   0  0  0  0  0  0  0  0  0  0  0  0
    5.9110  -22.7990   70.0770 C   0  0  0  0  0  0  0  0  0  0  0  0
    9.5290  -20.7750   70.5020 C   0  0  0  0  0  3  0  0  0  0  0  0
   10.7540  -20.5970   67.3660 H   0  0  0  0  0  0  0  0  0  0  0  0
    9.6880  -24.1020   66.9310 H   0  0  0  0  0  0  0  0  0  0  0  0
    8.5470  -23.0090   66.3060 H   0  0  0  0  0  0  0  0  0  0  0  0
   10.8130  -23.4410   65.0760 H   0  0  0  0  0  0  0  0  0  0  0  0
   11.5400  -22.3150   66.1540 H   0  0  0  0  0  0  0  0  0  0  0  0
    9.6210  -20.6060   65.2260 H   0  0  0  0  0  0  0  0  0  0  0  0
    9.4090  -21.7670   64.0220 H   0  0  0  0  0  0  0  0  0  0  0  0
   11.8840  -21.6410   63.4500 H   0  0  0  0  0  0  0  0  0  0  0  0
   11.0660  -20.1740   63.2100 H   0  0  0  0  0  0  0  0  0  0  0  0
    9.6540  -15.9720   70.2740 H   0  0  0  0  0  0  0  0  0  0  0  0
   13.8580  -21.6600   64.9670 H   0  0  0  0  0  0  0  0  0  0  0  0
   15.3810  -20.4700   66.5300 H   0  0  0  0  0  0  0  0  0  0  0  0
   14.7900  -18.2640   67.4460 H   0  0  0  0  0  0  0  0  0  0  0  0
   13.3570  -16.0140   67.0750 H   0  0  0  0  0  0  0  0  0  0  0  0
   11.8000  -16.1170   66.3720 H   0  0  0  0  0  0  0  0  0  0  0  0
   12.7450  -16.9310   69.1580 H   0  0  0  0  0  0  0  0  0  0  0  0
   10.2260  -15.3920   68.2570 H   0  0  0  0  0  0  0  0  0  0  0  0
   11.6990  -14.6510   68.8900 H   0  0  0  0  0  0  0  0  0  0  0  0
   10.6250  -13.7080   70.7930 H   0  0  0  0  0  0  0  0  0  0  0  0
   12.7090  -12.6020   71.3600 H   0  0  0  0  0  0  0  0  0  0  0  0
   15.1710  -14.0900   71.4110 H   0  0  0  0  0  0  0  0  0  0  0  0
   14.6980  -13.6650   73.0410 H   0  0  0  0  0  0  0  0  0  0  0  0
   15.3080  -11.7270   70.6720 H   0  0  0  0  0  0  0  0  0  0  0  0
   17.2620  -12.7130   72.1610 H   0  0  0  0  0  0  0  0  0  0  0  0
   17.1700  -10.9640   72.0640 H   0  0  0  0  0  0  0  0  0  0  0  0
   16.6050  -11.7910   73.4860 H   0  0  0  0  0  0  0  0  0  0  0  0
   13.4030  -10.6390   71.8190 H   0  0  0  0  0  0  0  0  0  0  0  0
   14.8780   -9.8470   72.3620 H   0  0  0  0  0  0  0  0  0  0  0  0
   14.0950  -10.9780   73.3920 H   0  0  0  0  0  0  0  0  0  0  0  0
    9.0340  -14.7340   72.2970 H   0  0  0  0  0  0  0  0  0  0  0  0
    9.5080  -16.6560   73.2150 H   0  0  0  0  0  0  0  0  0  0  0  0
   11.5510  -14.5180   74.0160 H   0  0  0  0  0  0  0  0  0  0  0  0
   10.6110  -13.1500   73.4780 H   0  0  0  0  0  0  0  0  0  0  0  0
    9.3670  -15.4360   75.1550 H   0  0  0  0  0  0  0  0  0  0  0  0
    8.5400  -13.9830   74.6590 H   0  0  0  0  0  0  0  0  0  0  0  0
   11.0290  -13.9150   76.4640 H   0  0  0  0  0  0  0  0  0  0  0  0
    9.9730  -12.5740   76.1040 H   0  0  0  0  0  0  0  0  0  0  0  0
    9.4010  -13.9160   77.0760 H   0  0  0  0  0  0  0  0  0  0  0  0
   10.6900  -18.2200   67.5750 H   0  0  0  0  0  0  0  0  0  0  0  0
   11.1160  -18.3590   65.2600 H   0  0  0  0  0  0  0  0  0  0  0  0
    8.3440  -23.6250   69.1260 H   0  0  0  0  0  0  0  0  0  0  0  0
    8.1940  -22.6740   73.7230 H   0  0  0  0  0  0  0  0  0  0  0  0
    9.3030  -21.4780   73.1050 H   0  0  0  0  0  0  0  0  0  0  0  0
   10.9260  -23.1990   72.5320 H   0  0  0  0  0  0  0  0  0  0  0  0
    9.6790  -24.4420   72.3980 H   0  0  0  0  0  0  0  0  0  0  0  0
   10.9820  -24.8110   74.4020 H   0  0  0  0  0  0  0  0  0  0  0  0
   10.6700  -23.2210   75.0420 H   0  0  0  0  0  0  0  0  0  0  0  0
    9.3710  -24.4220   74.8920 H   0  0  0  0  0  0  0  0  0  0  0  0
    5.0170  -23.3290   69.7040 H   0  0  0  0  0  0  0  0  0  0  0  0
    5.5070  -21.7620   70.0410 H   0  0  0  0  0  0  0  0  0  0  0  0
    6.4810  -22.7480   69.1210 H   0  0  0  0  0  0  0  0  0  0  0  0
    9.5120  -20.2230   71.4350 H   0  0  0  0  0  0  0  0  0  0  0  0
   10.6490  -15.7760   70.2910 N   0  0  0  0  0  0  0  0  0  0  0  0
   13.1440  -13.4640   71.6070 N   0  0  0  0  0  0  0  0  0  0  0  0
   11.1010  -18.0510   68.4670 N   0  0  0  0  0  0  0  0  0  0  0  0
    8.1380  -22.5300   71.5250 N   0  0  0  0  0  0  0  0  0  0  0  0
   11.5770  -18.6640   70.5510 O   0  0  0  0  0  1  0  0  0  0  0  0
   12.9600  -15.6950   71.9230 O   0  0  0  0  0  1  0  0  0  0  0  0
   10.2880  -16.3590   72.7630 O   0  0  0  0  0  0  0  0  0  0  0  0
    5.9230  -22.9540   72.6170 O   0  0  0  0  0  1  0  0  0  0  0  0
    6.8660  -24.7020   71.3210 O   0  0  0  0  0  1  0  0  0  0  0  0
    6.6530  -23.2870   71.4510 S   0  0  0  0  0  4  0  0  0  0  0  0
  1  2  1  0
  1 89  1  0
  1 91  1  0
  2  3  1  0
  2 34  1  0
  3  4  1  0
  3 35  1  0
  4  5  1  0
  4 28  1  0
  5  6  1  0
  5 36  1  0
  5 37  1  0
  6  7  1  0
  6 38  1  0
  6 39  1  0
  7  8  1  0
  7 40  1  0
  7 41  1  0
  8  9  1  0
  8 42  1  0
  8 43  1  0
  9 10  1  0
  9 27  1  0
 10 11  1  0
 10 45  1  0
 11 12  1  0
 11 46  1  0
 12 13  1  0
 12 47  1  0
 13 14  1  0
 13 27  1  0
 14 15  1  0
 14 48  1  0
 14 49  1  0
 15 16  1  0
 15 50  1  0
 15 89  1  0
 16 51  1  0
 16 52  1  0
 16 87  1  0
 17 18  1  0
 17 23  1  0
 17 53  1  0
 17 87  1  0
 18 88  1  0
 18 92  1  0
 19 20  1  0
 19 55  1  0
 19 56  1  0
 19 88  1  0
 20 21  1  0
 20 22  1  0
 20 57  1  0
 21 58  1  0
 21 59  1  0
 21 60  1  0
 22 61  1  0
 22 62  1  0
 22 63  1  0
 23 24  1  0
 23 64  1  0
 23 93  1  0
 24 25  1  0
 24 66  1  0
 24 67  1  0
 25 26  1  0
 25 68  1  0
 25 69  1  0
 26 70  1  0
 26 71  1  0
 26 72  1  0
 27 74  1  0
 28 29  1  0
 28 75  1  0
 29 34  1  0
 29 90  1  0
 30 31  1  0
 30 76  1  0
 30 77  1  0
 30 90  1  0
 31 32  1  0
 31 78  1  0
 31 79  1  0
 32 80  1  0
 32 81  1  0
 32 82  1  0
 33 83  1  0
 33 84  1  0
 33 85  1  0
 33 96  1  0
 34 86  1  0
 44 87  1  0
 54 88  1  0
 65 93  1  0
 73 89  1  0
 90 96  1  0
 94 96  1  0
 95 96  1  0
M  END
$$$$
