6nw3_B_L4J_401
     RDKit          3D

 43 45  0  0  0  0  0  0  0  0999 V2000
   10.4980  -17.8930   66.3280 C   0  0  0  0  0  3  0  0  0  0  0  0
    9.7680  -19.2210   66.2710 C   0  0  0  0  0  3  0  0  0  0  0  0
    9.7240  -19.9350   65.0700 C   0  0  0  0  0  2  0  0  0  0  0  0
    9.0690  -21.1640   64.9880 C   0  0  0  0  0  3  0  0  0  0  0  0
    9.0390  -21.8900   63.6660 C   0  0  0  0  0  2  0  0  0  0  0  0
   10.0680  -21.4000   62.6410 C   0  0  0  0  0  2  0  0  0  0  0  0
    9.5280  -20.4650   61.5530 C   0  0  0  0  0  2  0  0  0  0  0  0
   10.6290  -19.7050   60.7990 C   0  0  0  0  0  2  0  0  0  0  0  0
   11.6270  -18.9810   61.6590 C   0  0  0  0  0  3  0  0  0  0  0  0
   12.8860  -19.5310   61.9090 C   0  0  0  0  0  2  0  0  0  0  0  0
   13.7990  -18.8490   62.7050 C   0  0  0  0  0  2  0  0  0  0  0  0
   13.4800  -17.6140   63.2600 C   0  0  0  0  0  2  0  0  0  0  0  0
   12.2320  -17.0360   63.0080 C   0  0  0  0  0  3  0  0  0  0  0  0
   11.8730  -15.7140   63.6170 C   0  0  0  0  0  2  0  0  0  0  0  0
   11.4150  -15.8540   65.0760 C   0  0  0  0  0  3  0  0  0  0  0  0
   10.5960  -14.6130   65.6150 C   0  0  0  0  0  2  0  0  0  0  0  0
   10.6040  -13.8280   68.0220 C   0  0  0  0  0  3  0  0  0  0  0  0
   12.1120  -13.8460   68.3350 C   0  0  0  0  0  3  0  0  0  0  0  0
   14.2360  -12.5820   68.5380 C   0  0  0  0  0  2  0  0  0  0  0  0
   14.7690  -11.1350   68.6580 C   0  0  0  0  0  3  0  0  0  0  0  0
   16.0540  -11.0420   69.4790 C   0  0  0  0  0  1  0  0  0  0  0  0
   13.7350  -10.2030   69.2510 C   0  0  0  0  0  1  0  0  0  0  0  0
    9.7920  -14.0230   69.3150 C   0  0  0  0  0  2  0  0  0  0  0  0
   10.1180  -13.0590   70.4500 C   0  0  0  0  0  2  0  0  0  0  0  0
    9.3350  -13.3570   71.7360 C   0  0  0  0  0  2  0  0  0  0  0  0
    9.9320  -12.6530   72.9350 C   0  0  0  0  0  1  0  0  0  0  0  0
   11.3110  -17.7320   62.2160 C   0  0  0  0  0  2  0  0  0  0  0  0
    8.4540  -21.6990   66.1130 C   0  0  0  0  0  2  0  0  0  0  0  0
    8.4790  -21.0190   67.3340 C   0  0  0  0  0  3  0  0  0  0  0  0
    8.5480  -21.6360   69.8040 C   0  0  0  0  0  2  0  0  0  0  0  0
    9.9370  -22.3410   69.7860 C   0  0  0  0  0  2  0  0  0  0  0  0
   10.0090  -23.6080   68.9270 C   0  0  0  0  0  1  0  0  0  0  0  0
    6.4410  -23.8750   67.9890 C   0  0  0  0  0  1  0  0  0  0  0  0
    9.1490  -19.7810   67.3960 C   0  0  0  0  0  2  0  0  0  0  0  0
   10.2420  -14.8430   67.0310 N   0  0  0  0  0  2  0  0  0  0  0  0
   12.7980  -12.6480   68.2540 N   0  0  0  0  0  2  0  0  0  0  0  0
   10.6910  -17.1280   65.1810 N   0  0  0  0  0  2  0  0  0  0  0  0
    7.8390  -21.5980   68.4990 N   0  0  0  0  0  0  0  0  0  0  0  0
   10.9400  -17.4880   67.4010 O   0  0  0  0  0  1  0  0  0  0  0  0
   12.6870  -14.8870   68.6470 O   0  0  0  0  0  1  0  0  0  0  0  0
    5.7440  -22.1740   69.6910 O   0  0  0  0  0  1  0  0  0  0  0  0
    5.6440  -21.6430   67.2900 O   0  0  0  0  0  1  0  0  0  0  0  0
    6.3030  -22.2420   68.3940 S   0  0  0  0  0  4  0  0  0  0  0  0
  1  2  1  0
  1 37  1  0
  1 39  1  0
  2  3  1  0
  2 34  1  0
  3  4  1  0
  4  5  1  0
  4 28  1  0
  5  6  1  0
  6  7  1  0
  7  8  1  0
  8  9  1  0
  9 10  1  0
  9 27  1  0
 10 11  1  0
 11 12  1  0
 12 13  1  0
 13 14  1  0
 13 27  1  0
 14 15  1  0
 15 16  1  0
 15 37  1  0
 16 35  1  0
 17 18  1  0
 17 23  1  0
 17 35  1  0
 18 36  1  0
 18 40  1  0
 19 20  1  0
 19 36  1  0
 20 21  1  0
 20 22  1  0
 23 24  1  0
 24 25  1  0
 25 26  1  0
 28 29  1  0
 29 34  1  0
 29 38  1  0
 30 31  1  0
 30 38  1  0
 31 32  1  0
 33 43  1  0
 38 43  1  0
 41 43  1  0
 42 43  1  0
M  END
$$$$
