6od6_A_M7D_401
     RDKit          3D

 29 32  0  0  0  0  0  0  0  0999 V2000
  -37.7690  -45.4820   18.2340 C   0  0  0  0  0  3  0  0  0  0  0  0
  -38.2970  -45.8670   19.4680 C   0  0  0  0  0  2  0  0  0  0  0  0
  -39.6380  -45.6220   19.7680 C   0  0  0  0  0  3  0  0  0  0  0  0
  -40.4500  -44.9920   18.8250 C   0  0  0  0  0  3  0  0  0  0  0  0
  -39.9280  -44.6100   17.5880 C   0  0  0  0  0  2  0  0  0  0  0  0
  -38.5870  -44.8590   17.2890 C   0  0  0  0  0  2  0  0  0  0  0  0
  -40.1740  -46.0590   21.1390 C   0  0  0  0  0  0  0  0  0  0  0  0
  -30.2300  -46.4360   17.2360 C   0  0  0  0  0  2  0  0  0  0  0  0
  -41.3640  -46.9510   20.9130 C   0  0  0  0  0  1  0  0  0  0  0  0
  -38.2670  -46.3620   22.6730 C   0  0  0  0  0  3  0  0  0  0  0  0
  -38.3580  -44.9370   22.9190 C   0  0  0  0  0  3  0  0  0  0  0  0
  -37.4530  -44.0440   23.4570 C   0  0  0  0  0  2  0  0  0  0  0  0
  -38.0720  -42.7680   23.4670 C   0  0  0  0  0  2  0  0  0  0  0  0
  -39.3370  -42.9110   22.9370 C   0  0  0  0  0  2  0  0  0  0  0  0
  -40.6300  -44.8740   22.0260 C   0  0  0  0  0  2  0  0  0  0  0  0
  -31.6120  -46.0860   17.1710 C   0  0  0  0  0  3  0  0  0  0  0  0
  -32.0310  -45.0280   16.3670 C   0  0  0  0  0  2  0  0  0  0  0  0
  -33.3840  -44.7040   16.3180 C   0  0  0  0  0  2  0  0  0  0  0  0
  -34.2450  -45.4710   17.0840 C   0  0  0  0  0  3  0  0  0  0  0  0
  -32.5610  -46.7890   17.9010 C   0  0  0  0  0  2  0  0  0  0  0  0
  -35.6660  -45.1300   17.0310 C   0  0  0  0  0  3  0  0  0  0  0  0
  -41.7410  -44.7560   19.1050 F   0  0  0  0  0  0  0  0  0  0  0  0
  -29.1050  -46.7170   17.2840 N   0  0  0  0  0  1  0  0  0  0  0  0
  -36.4140  -45.7590   17.9910 N   0  0  0  0  0  2  0  0  0  0  0  0
  -39.1360  -46.8610   21.8390 N   0  0  0  0  0  2  0  0  0  0  0  0
  -37.3190  -47.1250   23.2940 N   0  0  0  0  0  1  0  0  0  0  0  0
  -39.4840  -44.2210   22.6150 N   0  0  0  0  0  0  0  0  0  0  0  0
  -33.8830  -46.5050   17.8750 N   0  0  0  0  0  2  0  0  0  0  0  0
  -36.0590  -44.3510   16.1780 O   0  0  0  0  0  1  0  0  0  0  0  0
  1  2  1  0
  1  6  1  0
  1 24  1  0
  2  3  1  0
  3  4  1  0
  3  7  1  0
  4  5  1  0
  4 22  1  0
  5  6  1  0
  7  9  1  0
  7 15  1  0
  7 25  1  0
  8 16  1  0
  8 23  1  0
 10 11  1  0
 10 25  1  0
 10 26  1  0
 11 12  1  0
 11 27  1  0
 12 13  1  0
 13 14  1  0
 14 27  1  0
 15 27  1  0
 16 17  1  0
 16 20  1  0
 17 18  1  0
 18 19  1  0
 19 21  1  0
 19 28  1  0
 20 28  1  0
 21 24  1  0
 21 29  1  0
M  END
$$$$
