6od6_C_M7D_401
     RDKit          3D

 29 32  0  0  0  0  0  0  0  0999 V2000
  -63.8900  -39.6230   41.2820 C   0  0  0  0  0  3  0  0  0  0  0  0
  -63.1980  -39.3730   40.0930 C   0  0  0  0  0  2  0  0  0  0  0  0
  -63.1190  -40.3560   39.1050 C   0  0  0  0  0  3  0  0  0  0  0  0
  -63.7420  -41.5870   39.3190 C   0  0  0  0  0  3  0  0  0  0  0  0
  -64.4370  -41.8400   40.5030 C   0  0  0  0  0  2  0  0  0  0  0  0
  -64.5140  -40.8560   41.4910 C   0  0  0  0  0  2  0  0  0  0  0  0
  -62.3510  -40.0720   37.8000 C   0  0  0  0  0  0  0  0  0  0  0  0
  -63.7410  -33.8590   46.2360 C   0  0  0  0  0  2  0  0  0  0  0  0
  -63.2700  -40.3950   36.6520 C   0  0  0  0  0  1  0  0  0  0  0  0
  -60.8370  -38.1330   38.0470 C   0  0  0  0  0  3  0  0  0  0  0  0
  -59.8890  -39.0650   38.6260 C   0  0  0  0  0  3  0  0  0  0  0  0
  -58.7710  -38.8630   39.4110 C   0  0  0  0  0  2  0  0  0  0  0  0
  -58.2140  -40.1370   39.6910 C   0  0  0  0  0  2  0  0  0  0  0  0
  -59.0020  -41.0830   39.0700 C   0  0  0  0  0  2  0  0  0  0  0  0
  -61.0870  -40.9540   37.6510 C   0  0  0  0  0  2  0  0  0  0  0  0
  -63.9100  -35.1090   45.5740 C   0  0  0  0  0  3  0  0  0  0  0  0
  -64.1210  -36.2770   46.3050 C   0  0  0  0  0  2  0  0  0  0  0  0
  -64.2800  -37.4850   45.6310 C   0  0  0  0  0  2  0  0  0  0  0  0
  -64.2220  -37.4420   44.2490 C   0  0  0  0  0  3  0  0  0  0  0  0
  -63.8630  -35.1800   44.1890 C   0  0  0  0  0  2  0  0  0  0  0  0
  -64.3830  -38.6970   43.5150 C   0  0  0  0  0  3  0  0  0  0  0  0
  -63.6720  -42.5380   38.3730 F   0  0  0  0  0  0  0  0  0  0  0  0
  -63.6010  -32.8370   46.7680 N   0  0  0  0  0  1  0  0  0  0  0  0
  -63.9280  -38.5860   42.2270 N   0  0  0  0  0  2  0  0  0  0  0  0
  -61.9810  -38.6370   37.6730 N   0  0  0  0  0  2  0  0  0  0  0  0
  -60.5300  -36.8080   37.9180 N   0  0  0  0  0  1  0  0  0  0  0  0
  -60.0010  -40.4150   38.4380 N   0  0  0  0  0  0  0  0  0  0  0  0
  -64.0190  -36.3350   43.5040 N   0  0  0  0  0  2  0  0  0  0  0  0
  -64.8790  -39.6660   44.0680 O   0  0  0  0  0  1  0  0  0  0  0  0
  1  2  1  0
  1  6  1  0
  1 24  1  0
  2  3  1  0
  3  4  1  0
  3  7  1  0
  4  5  1  0
  4 22  1  0
  5  6  1  0
  7  9  1  0
  7 15  1  0
  7 25  1  0
  8 16  1  0
  8 23  1  0
 10 11  1  0
 10 25  1  0
 10 26  1  0
 11 12  1  0
 11 27  1  0
 12 13  1  0
 13 14  1  0
 14 27  1  0
 15 27  1  0
 16 17  1  0
 16 20  1  0
 17 18  1  0
 18 19  1  0
 19 21  1  0
 19 28  1  0
 20 28  1  0
 21 24  1  0
 21 29  1  0
M  END
$$$$
