6uvp_B_QJM_404
     RDKit          3D

 23 26  0  0  0  0  0  0  0  0999 V2000
   97.2670   46.0930   60.2830 C   0  0  0  0  0  2  0  0  0  0  0  0
   92.8560   44.1270   52.4310 C   0  0  0  0  0  2  0  0  0  0  0  0
   94.8340   47.0430   53.5700 C   0  0  0  0  0  2  0  0  0  0  0  0
   93.1620   44.3670   54.9190 C   0  0  0  0  0  3  0  0  0  0  0  0
   94.4220   45.6880   53.0770 C   0  0  0  0  0  3  0  0  0  0  0  0
   92.7110   44.9000   56.2490 C   0  0  0  0  0  3  0  0  0  0  0  0
   93.1090   45.0770   53.5930 C   0  0  0  0  0  0  0  0  0  0  0  0
   96.5780   46.3300   59.0960 C   0  0  0  0  0  2  0  0  0  0  0  0
   95.6240   44.4540   60.8910 C   0  0  0  0  0  2  0  0  0  0  0  0
   96.7840   45.1390   61.1890 C   0  0  0  0  0  3  0  0  0  0  0  0
   95.4150   45.5820   58.8800 C   0  0  0  0  0  3  0  0  0  0  0  0
   91.9790   47.3210   53.5870 C   0  0  0  0  0  3  0  0  0  0  0  0
   94.6130   45.7820   57.6380 C   0  0  0  0  0  3  0  0  0  0  0  0
   92.0030   43.7430   55.6390 C   0  0  0  0  0  2  0  0  0  0  0  0
   94.2150   45.7330   51.5770 C   0  0  0  0  0  2  0  0  0  0  0  0
   97.3940   44.8710   62.3330 F   0  0  0  0  0  0  0  0  0  0  0  0
   94.9440   44.6710   59.7550 N   0  0  0  0  0  2  0  0  0  0  0  0
   91.9580   46.0160   53.5860 N   0  0  0  0  0  2  0  0  0  0  0  0
   90.8690   48.0170   53.6770 N   0  0  0  0  0  1  0  0  0  0  0  0
   93.5930   44.8690   57.3840 N   0  0  0  0  0  2  0  0  0  0  0  0
   94.8890   46.7240   56.9220 O   0  0  0  0  0  1  0  0  0  0  0  0
   93.1390   44.8620   51.2600 O   0  0  0  0  0  0  0  0  0  0  0  0
   93.4620   48.2430   53.4550 S   0  0  0  0  0  0  0  0  0  0  0  0
  1  8  1  0
  1 10  1  0
  2  7  1  0
  2 22  1  0
  3  5  1  0
  3 23  1  0
  4  6  1  0
  4  7  1  0
  4 14  1  0
  5  7  1  0
  5 15  1  0
  6 14  1  0
  6 20  1  0
  7 18  1  0
  8 11  1  0
  9 10  1  0
  9 17  1  0
 10 16  1  0
 11 13  1  0
 11 17  1  0
 12 18  1  0
 12 19  1  0
 12 23  1  0
 13 20  1  0
 13 21  1  0
 15 22  1  0
M  END
$$$$
