6uvp_B_QJJ_402
     RDKit          3D

 23 26  0  0  0  0  0  0  0  0999 V2000
   47.7760   48.9850   75.5870 C   0  0  0  0  0  2  0  0  0  0  0  0
   50.5870   53.8850   82.7980 C   0  0  0  0  0  2  0  0  0  0  0  0
   53.2800   52.3330   80.7890 C   0  0  0  0  0  2  0  0  0  0  0  0
   49.9180   53.4470   80.4010 C   0  0  0  0  0  3  0  0  0  0  0  0
   52.3630   53.4190   81.3330 C   0  0  0  0  0  3  0  0  0  0  0  0
   50.2880   53.4840   78.9510 C   0  0  0  0  0  3  0  0  0  0  0  0
   50.8660   53.0810   81.5260 C   0  0  0  0  0  0  0  0  0  0  0  0
   48.4800   49.4680   76.6820 C   0  0  0  0  0  2  0  0  0  0  0  0
   47.5910   51.2340   74.7800 C   0  0  0  0  0  2  0  0  0  0  0  0
   47.3260   49.8860   74.6230 C   0  0  0  0  0  3  0  0  0  0  0  0
   48.6900   50.8450   76.7590 C   0  0  0  0  0  3  0  0  0  0  0  0
   51.4560   50.6310   82.0360 C   0  0  0  0  0  3  0  0  0  0  0  0
   49.4400   51.4040   77.9060 C   0  0  0  0  0  3  0  0  0  0  0  0
   49.9560   54.7550   79.6500 C   0  0  0  0  0  2  0  0  0  0  0  0
   52.8170   53.8730   82.7200 C   0  0  0  0  0  2  0  0  0  0  0  0
   46.6470   49.4800   73.5610 F   0  0  0  0  0  0  0  0  0  0  0  0
   48.2620   51.7250   75.8330 N   0  0  0  0  0  2  0  0  0  0  0  0
   50.6370   51.6540   81.8860 N   0  0  0  0  0  2  0  0  0  0  0  0
   50.9910   49.4470   82.4370 N   0  0  0  0  0  1  0  0  0  0  0  0
   49.5660   52.7790   77.9400 N   0  0  0  0  0  2  0  0  0  0  0  0
   49.8960   50.6530   78.7400 O   0  0  0  0  0  1  0  0  0  0  0  0
   51.7330   53.6800   83.6210 O   0  0  0  0  0  0  0  0  0  0  0  0
   53.1770   50.7650   81.7210 S   0  0  0  0  0  0  0  0  0  0  0  0
  1  8  1  0
  1 10  1  0
  2  7  1  0
  2 22  1  0
  3  5  1  0
  3 23  1  0
  4  6  1  0
  4  7  1  0
  4 14  1  0
  5  7  1  0
  5 15  1  0
  6 14  1  0
  6 20  1  0
  7 18  1  0
  8 11  1  0
  9 10  1  0
  9 17  1  0
 10 16  1  0
 11 13  1  0
 11 17  1  0
 12 18  1  0
 12 19  1  0
 12 23  1  0
 13 20  1  0
 13 21  1  0
 15 22  1  0
M  END
$$$$
