6uvy_B_QJP_401
     RDKit          3D

 21 24  0  0  0  0  0  0  0  0999 V2000
   73.0140   36.0750   74.0030 C   0  0  0  0  0  1  0  0  0  0  0  0
   64.8340   35.0620   75.4230 C   0  0  0  0  0  0  0  0  0  0  0  0
   65.5990   35.6050   73.0640 C   0  0  0  0  0  3  0  0  0  0  0  0
   65.2970   32.9400   74.0090 C   0  0  0  0  0  2  0  0  0  0  0  0
   64.4260   33.6580   75.0250 C   0  0  0  0  0  3  0  0  0  0  0  0
   62.9980   33.8420   74.5520 C   0  0  0  0  0  2  0  0  0  0  0  0
   63.5450   35.6520   75.9950 C   0  0  0  0  0  2  0  0  0  0  0  0
   72.6110   35.5610   75.3450 C   0  0  0  0  0  3  0  0  0  0  0  0
   73.2830   34.3180   75.8840 C   0  0  0  0  0  2  0  0  0  0  0  0
   71.8570   34.2690   75.3910 C   0  0  0  0  0  3  0  0  0  0  0  0
   70.7940   34.1560   76.4410 C   0  0  0  0  0  2  0  0  0  0  0  0
   68.4580   34.7800   76.7360 C   0  0  0  0  0  3  0  0  0  0  0  0
   67.3130   35.4800   76.1260 C   0  0  0  0  0  3  0  0  0  0  0  0
   66.4410   36.3900   76.9720 C   0  0  0  0  0  2  0  0  0  0  0  0
   65.8900   35.0720   76.4760 C   0  0  0  0  0  3  0  0  0  0  0  0
   69.5510   34.6690   75.9080 N   0  0  0  0  0  2  0  0  0  0  0  0
   65.1900   35.9290   74.2810 N   0  0  0  0  0  2  0  0  0  0  0  0
   65.9260   36.5570   72.1910 N   0  0  0  0  0  1  0  0  0  0  0  0
   68.4180   34.3320   77.8730 O   0  0  0  0  0  1  0  0  0  0  0  0
   62.5090   34.9720   75.2860 O   0  0  0  0  0  0  0  0  0  0  0  0
   65.6930   33.9630   72.5490 S   0  0  0  0  0  0  0  0  0  0  0  0
  1  8  1  0
  2  5  1  0
  2  7  1  0
  2 15  1  0
  2 17  1  0
  3 17  1  0
  3 18  1  0
  3 21  1  0
  4  5  1  0
  4 21  1  0
  5  6  1  0
  6 20  1  0
  7 20  1  0
  8  9  1  0
  8 10  1  0
  9 10  1  0
 10 11  1  0
 11 16  1  0
 12 13  1  0
 12 16  1  0
 12 19  1  0
 13 14  1  0
 13 15  1  0
 14 15  1  0
M  END
$$$$
