6uvy_A_QJP_401
     RDKit          3D

 21 24  0  0  0  0  0  0  0  0999 V2000
   29.8000   54.3260   88.9550 C   0  0  0  0  0  1  0  0  0  0  0  0
   21.6670   55.3140   87.6100 C   0  0  0  0  0  0  0  0  0  0  0  0
   22.4800   54.8370   89.9640 C   0  0  0  0  0  3  0  0  0  0  0  0
   22.3050   57.4110   88.9010 C   0  0  0  0  0  2  0  0  0  0  0  0
   21.2810   56.7160   88.0290 C   0  0  0  0  0  3  0  0  0  0  0  0
   19.9090   56.5200   88.6660 C   0  0  0  0  0  2  0  0  0  0  0  0
   20.3280   54.7630   87.1530 C   0  0  0  0  0  2  0  0  0  0  0  0
   29.3840   54.8670   87.6150 C   0  0  0  0  0  3  0  0  0  0  0  0
   30.0690   56.0870   87.0760 C   0  0  0  0  0  2  0  0  0  0  0  0
   28.6370   56.1650   87.5350 C   0  0  0  0  0  3  0  0  0  0  0  0
   27.6060   56.2620   86.4480 C   0  0  0  0  0  2  0  0  0  0  0  0
   25.2490   55.6200   86.1370 C   0  0  0  0  0  3  0  0  0  0  0  0
   24.1280   54.9170   86.7860 C   0  0  0  0  0  3  0  0  0  0  0  0
   23.2190   54.0290   85.9730 C   0  0  0  0  0  2  0  0  0  0  0  0
   22.6920   55.3250   86.5180 C   0  0  0  0  0  3  0  0  0  0  0  0
   26.3590   55.7270   86.9490 N   0  0  0  0  0  2  0  0  0  0  0  0
   22.0570   54.4730   88.7620 N   0  0  0  0  0  2  0  0  0  0  0  0
   22.8030   53.9230   90.8830 N   0  0  0  0  0  1  0  0  0  0  0  0
   25.1770   56.0630   84.9920 O   0  0  0  0  0  1  0  0  0  0  0  0
   19.3660   55.3250   88.0600 O   0  0  0  0  0  0  0  0  0  0  0  0
   22.6210   56.4870   90.4230 S   0  0  0  0  0  0  0  0  0  0  0  0
  1  8  1  0
  2  5  1  0
  2  7  1  0
  2 15  1  0
  2 17  1  0
  3 17  1  0
  3 18  1  0
  3 21  1  0
  4  5  1  0
  4 21  1  0
  5  6  1  0
  6 20  1  0
  7 20  1  0
  8  9  1  0
  8 10  1  0
  9 10  1  0
 10 11  1  0
 11 16  1  0
 12 13  1  0
 12 16  1  0
 12 19  1  0
 13 14  1  0
 13 15  1  0
 14 15  1  0
M  END
$$$$
