6uwp_B_QKA_401
     RDKit          3D

 27 31  0  0  0  0  0  0  0  0999 V2000
  -14.0660  -13.8780   43.2270 C   0  0  0  0  0  2  0  0  0  0  0  0
  -14.5780  -14.3360   41.9980 C   0  0  0  0  0  2  0  0  0  0  0  0
  -16.2400  -20.6550   40.6770 C   0  0  0  0  0  2  0  0  0  0  0  0
  -15.2590  -22.5350   43.7770 C   0  0  0  0  0  3  0  0  0  0  0  0
  -15.8530  -21.1360   43.8840 C   0  0  0  0  0  3  0  0  0  0  0  0
  -16.3170  -19.6730   41.8470 C   0  0  0  0  0  3  0  0  0  0  0  0
  -14.6530  -27.8050   43.1400 C   0  0  0  0  0  3  0  0  0  0  0  0
  -15.7750  -27.0610   42.4660 C   0  0  0  0  0  3  0  0  0  0  0  0
  -15.3380  -19.9950   42.9940 C   0  0  0  0  0  0  0  0  0  0  0  0
  -13.4240  -28.1560   42.3400 C   0  0  0  0  0  1  0  0  0  0  0  0
  -16.5640  -26.0170   43.2210 C   0  0  0  0  0  2  0  0  0  0  0  0
  -14.1270  -14.7560   44.3160 C   0  0  0  0  0  2  0  0  0  0  0  0
  -15.0850  -16.3850   42.9570 C   0  0  0  0  0  3  0  0  0  0  0  0
  -13.5440  -20.6750   41.4340 C   0  0  0  0  0  3  0  0  0  0  0  0
  -16.1710  -23.6900   43.9060 C   0  0  0  0  0  3  0  0  0  0  0  0
  -15.0170  -21.6790   45.0140 C   0  0  0  0  0  2  0  0  0  0  0  0
  -15.9660  -28.5110   42.8750 C   0  0  0  0  0  2  0  0  0  0  0  0
  -15.9120  -18.2250   41.4850 C   0  0  0  0  0  2  0  0  0  0  0  0
  -15.3980  -18.6760   43.8230 C   0  0  0  0  0  2  0  0  0  0  0  0
  -15.0940  -15.6050   41.8370 N   0  0  0  0  0  2  0  0  0  0  0  0
  -14.6380  -16.0190   44.2260 N   0  0  0  0  0  2  0  0  0  0  0  0
  -13.9350  -20.2450   42.6120 N   0  0  0  0  0  2  0  0  0  0  0  0
  -15.4800  -17.6920   42.7770 N   0  0  0  0  0  0  0  0  0  0  0  0
  -12.2330  -20.9220   41.2070 N   0  0  0  0  0  1  0  0  0  0  0  0
  -15.7910  -24.7760   43.1910 N   0  0  0  0  0  2  0  0  0  0  0  0
  -17.1980  -23.6540   44.6010 O   0  0  0  0  0  1  0  0  0  0  0  0
  -14.5530  -20.9280   40.0120 S   0  0  0  0  0  0  0  0  0  0  0  0
  1  2  1  0
  1 12  1  0
  2 20  1  0
  3  6  1  0
  3 27  1  0
  4  5  1  0
  4 15  1  0
  4 16  1  0
  5  9  1  0
  5 16  1  0
  6  9  1  0
  6 18  1  0
  7  8  1  0
  7 10  1  0
  7 17  1  0
  8 11  1  0
  8 17  1  0
  9 19  1  0
  9 22  1  0
 11 25  1  0
 12 21  1  0
 13 20  1  0
 13 21  1  0
 13 23  1  0
 14 22  1  0
 14 24  1  0
 14 27  1  0
 15 25  1  0
 15 26  1  0
 18 23  1  0
 19 23  1  0
M  END
$$$$
