6wny_A_U64_501
     RDKit          3D

 35 39  0  0  0  0  0  0  0  0999 V2000
   71.0260   48.7510    6.9140 C   0  0  0  0  0  3  0  0  0  0  0  0
   66.8500   47.7690   10.0440 C   0  0  0  0  0  0  0  0  0  0  0  0
   66.5480   48.4860    7.4690 C   0  0  0  0  0  3  0  0  0  0  0  0
   67.8250   51.4250    9.2610 C   0  0  0  0  0  1  0  0  0  0  0  0
   65.6980   47.3990   10.9710 C   0  0  0  0  0  3  0  0  0  0  0  0
   68.2210   47.8140   10.6370 C   0  0  0  0  0  2  0  0  0  0  0  0
   72.1770   47.4240    5.0830 C   0  0  0  0  0  3  0  0  0  0  0  0
   72.1250   46.7150    3.8360 C   0  0  0  0  0  3  0  0  0  0  0  0
   71.0470   46.1860    1.8610 C   0  0  0  0  0  2  0  0  0  0  0  0
   71.9990   45.2150    1.5280 C   0  0  0  0  0  3  0  0  0  0  0  0
   73.0540   44.9950    2.4150 C   0  0  0  0  0  2  0  0  0  0  0  0
   72.1080   48.9820    7.8230 C   0  0  0  0  0  2  0  0  0  0  0  0
   73.0960   45.7480    3.6020 C   0  0  0  0  0  2  0  0  0  0  0  0
   64.2440   49.1730    9.9120 C   0  0  0  0  0  2  0  0  0  0  0  0
   63.3760   50.3890   10.4310 C   0  0  0  0  0  2  0  0  0  0  0  0
   62.5790   49.0640   12.3120 C   0  0  0  0  0  2  0  0  0  0  0  0
   63.2870   47.7870   11.7680 C   0  0  0  0  0  2  0  0  0  0  0  0
   71.8950   44.5000    0.3130 C   0  0  0  0  0  2  0  0  0  0  0  0
   71.8090   49.5230    9.1070 C   0  0  0  0  0  2  0  0  0  0  0  0
   70.4670   49.7960    9.4640 C   0  0  0  0  0  3  0  0  0  0  0  0
   69.3980   49.5780    8.5810 C   0  0  0  0  0  3  0  0  0  0  0  0
   69.7220   49.0220    7.3270 C   0  0  0  0  0  2  0  0  0  0  0  0
   71.1470   48.1230    5.5920 C   0  0  0  0  0  2  0  0  0  0  0  0
   67.9510   49.8520    8.9510 C   0  0  0  0  0  0  0  0  0  0  0  0
   67.5150   49.0740   10.1810 C   0  0  0  0  0  3  0  0  0  0  0  0
   70.2120   50.3000   10.6620 F   0  0  0  0  0  0  0  0  0  0  0  0
   73.3430   47.2610    5.7700 F   0  0  0  0  0  0  0  0  0  0  0  0
   67.0450   49.6320    7.7630 N   0  0  0  0  0  2  0  0  0  0  0  0
   65.8060   48.2970    6.3230 N   0  0  0  0  0  1  0  0  0  0  0  0
   64.4850   48.0900   10.9160 N   0  0  0  0  0  0  0  0  0  0  0  0
   71.0920   46.9330    2.9850 N   0  0  0  0  0  2  0  0  0  0  0  0
   71.8020   43.9130   -0.6740 N   0  0  0  0  0  1  0  0  0  0  0  0
   65.8740   46.4920   11.7990 O   0  0  0  0  0  1  0  0  0  0  0  0
   62.1840   49.9600   11.2400 O   0  0  0  0  0  0  0  0  0  0  0  0
   66.7470   47.0030    8.4200 S   0  0  0  0  0  0  0  0  0  0  0  0
  1 12  1  0
  1 22  1  0
  1 23  1  0
  2  5  1  0
  2  6  1  0
  2 25  1  0
  2 35  1  0
  3 28  1  0
  3 29  1  0
  3 35  1  0
  4 24  1  0
  5 30  1  0
  5 33  1  0
  6 25  1  0
  7  8  1  0
  7 23  1  0
  7 27  1  0
  8 13  1  0
  8 31  1  0
  9 10  1  0
  9 31  1  0
 10 11  1  0
 10 18  1  0
 11 13  1  0
 12 19  1  0
 14 15  1  0
 14 30  1  0
 15 34  1  0
 16 17  1  0
 16 34  1  0
 17 30  1  0
 18 32  1  0
 19 20  1  0
 20 21  1  0
 20 26  1  0
 21 22  1  0
 21 24  1  0
 24 25  1  0
 24 28  1  0
M  END
$$$$
