7b1q_A_SLK_501
     RDKit          3D

 32 34  0  0  0  0  0  0  0  0999 V2000
   29.7780   75.5330   20.4430 C   0  0  0  0  0  3  0  0  0  0  0  0
   31.1820   70.9680   20.4420 C   0  0  0  0  0  2  0  0  0  0  0  0
   29.5430   71.0350   22.4170 C   0  0  0  0  0  1  0  0  0  0  0  0
   30.0900   71.0060   18.2240 C   0  0  0  0  0  0  0  0  0  0  0  0
   30.3160   69.5420   17.7340 C   0  0  0  0  0  0  0  0  0  0  0  0
   28.7580   71.1420   18.9910 C   0  0  0  0  0  3  0  0  0  0  0  0
   30.7700   76.0210   21.3380 C   0  0  0  0  0  2  0  0  0  0  0  0
   30.1250   71.9960   17.0160 C   0  0  0  0  0  1  0  0  0  0  0  0
   26.3030   79.0230   16.3160 C   0  0  0  0  0  3  0  0  0  0  0  0
   27.4820   79.7620   16.5400 C   0  0  0  0  0  2  0  0  0  0  0  0
   28.4190   79.3940   17.5300 C   0  0  0  0  0  3  0  0  0  0  0  0
   28.1260   78.2370   18.3090 C   0  0  0  0  0  3  0  0  0  0  0  0
   26.0610   77.8800   17.1030 C   0  0  0  0  0  2  0  0  0  0  0  0
   25.3850   79.4580   15.3030 C   0  0  0  0  0  2  0  0  0  0  0  0
   28.9960   77.6900   19.4240 C   0  0  0  0  0  3  0  0  0  0  0  0
   31.4940   75.1190   22.1400 C   0  0  0  0  0  2  0  0  0  0  0  0
   29.6790   80.2680   17.6900 C   0  0  0  0  0  1  0  0  0  0  0  0
   31.2400   73.7340   22.0590 C   0  0  0  0  0  3  0  0  0  0  0  0
   30.2420   73.2010   21.1770 C   0  0  0  0  0  3  0  0  0  0  0  0
   29.5360   74.1490   20.3890 C   0  0  0  0  0  2  0  0  0  0  0  0
   29.9230   71.6690   21.0470 C   0  0  0  0  0  0  0  0  0  0  0  0
   31.5990   69.3960   17.2950 F   0  0  0  0  0  0  0  0  0  0  0  0
   30.0870   68.6210   18.7110 F   0  0  0  0  0  0  0  0  0  0  0  0
   29.4640   69.2700   16.7060 F   0  0  0  0  0  0  0  0  0  0  0  0
   31.9810   72.9680   22.8430 F   0  0  0  0  0  0  0  0  0  0  0  0
   28.6960   71.4440   20.2500 N   0  0  0  0  0  2  0  0  0  0  0  0
   27.6510   70.9410   18.3140 N   0  0  0  0  0  1  0  0  0  0  0  0
   26.9730   77.5360   18.0600 N   0  0  0  0  0  2  0  0  0  0  0  0
   24.6520   79.8520   14.5060 N   0  0  0  0  0  1  0  0  0  0  0  0
   28.9980   76.3440   19.5660 N   0  0  0  0  0  2  0  0  0  0  0  0
   31.2250   71.3590   19.0580 O   0  0  0  0  0  0  0  0  0  0  0  0
   29.6470   78.4580   20.1290 O   0  0  0  0  0  1  0  0  0  0  0  0
  1  7  1  0
  1 20  1  0
  1 30  1  0
  2 21  1  0
  2 31  1  0
  3 21  1  0
  4  5  1  0
  4  6  1  0
  4  8  1  0
  4 31  1  0
  5 22  1  0
  5 23  1  0
  5 24  1  0
  6 26  1  0
  6 27  1  0
  7 16  1  0
  9 10  1  0
  9 13  1  0
  9 14  1  0
 10 11  1  0
 11 12  1  0
 11 17  1  0
 12 15  1  0
 12 28  1  0
 13 28  1  0
 14 29  1  0
 15 30  1  0
 15 32  1  0
 16 18  1  0
 18 19  1  0
 18 25  1  0
 19 20  1  0
 19 21  1  0
 21 26  1  0
M  END
$$$$
