7d36_A_GUC_508
     RDKit          3D

 32 35  0  0  0  0  0  0  0  0999 V2000
   22.8090   43.6920   -5.0010 C   0  0  0  0  0  1  0  0  0  0  0  0
   20.5230   38.9790   -9.2070 C   0  0  0  0  0  2  0  0  0  0  0  0
   19.2070   38.6570   -9.5620 C   0  0  0  0  0  3  0  0  0  0  0  0
   18.0790   38.9880   -8.6240 C   0  0  0  0  0  3  0  0  0  0  0  0
   18.4290   39.6110   -7.4290 C   0  0  0  0  0  2  0  0  0  0  0  0
   16.6200   38.6690   -8.9570 C   0  0  0  0  0  0  0  0  0  0  0  0
   16.4920   37.2110   -9.3900 C   0  0  0  0  0  1  0  0  0  0  0  0
   16.2250   39.5130  -10.1640 C   0  0  0  0  0  2  0  0  0  0  0  0
   16.0450   40.9430   -9.7210 C   0  0  0  0  0  3  0  0  0  0  0  0
   15.5660   41.2390   -8.3570 C   0  0  0  0  0  3  0  0  0  0  0  0
   15.4180   42.5710   -7.9630 C   0  0  0  0  0  2  0  0  0  0  0  0
   21.8540   43.1140   -3.9770 C   0  0  0  0  0  3  0  0  0  0  0  0
   15.7100   43.5930   -8.8680 C   0  0  0  0  0  2  0  0  0  0  0  0
   16.3310   42.0900  -10.6130 C   0  0  0  0  0  3  0  0  0  0  0  0
   15.2890   40.0720   -7.4620 C   0  0  0  0  0  3  0  0  0  0  0  0
   20.6910   43.8190   -0.6240 C   0  0  0  0  0  2  0  0  0  0  0  0
   21.6920   43.7430   -2.7400 C   0  0  0  0  0  2  0  0  0  0  0  0
   20.8000   43.2420   -1.7790 C   0  0  0  0  0  3  0  0  0  0  0  0
   20.0820   42.0850   -2.0660 C   0  0  0  0  0  2  0  0  0  0  0  0
   21.0510   41.8810   -4.2260 C   0  0  0  0  0  3  0  0  0  0  0  0
   21.1170   41.0880   -5.5150 C   0  0  0  0  0  3  0  0  0  0  0  0
   19.7510   39.9110   -7.1120 C   0  0  0  0  0  3  0  0  0  0  0  0
   20.7930   39.5980   -7.9900 C   0  0  0  0  0  2  0  0  0  0  0  0
   18.9810   38.0480  -10.7500 F   0  0  0  0  0  0  0  0  0  0  0  0
   16.7680   41.8650  -11.8660 F   0  0  0  0  0  0  0  0  0  0  0  0
   20.2150   41.4550   -3.2480 N   0  0  0  0  0  2  0  0  0  0  0  0
   19.9730   40.5130   -5.9230 N   0  0  0  0  0  2  0  0  0  0  0  0
   16.1440   43.3490  -10.1280 N   0  0  0  0  0  2  0  0  0  0  0  0
   14.6430   40.2660   -6.3070 N   0  0  0  0  0  1  0  0  0  0  0  0
   15.6980   38.9220   -7.8290 N   0  0  0  0  0  2  0  0  0  0  0  0
   20.6540   44.3800    0.3950 N   0  0  0  0  0  1  0  0  0  0  0  0
   22.1920   40.9660   -6.1000 O   0  0  0  0  0  1  0  0  0  0  0  0
  1 12  1  0
  2  3  1  0
  2 23  1  0
  3  4  1  0
  3 24  1  0
  4  5  1  0
  4  6  1  0
  5 22  1  0
  6  7  1  0
  6  8  1  0
  6 30  1  0
  8  9  1  0
  9 10  1  0
  9 14  1  0
 10 11  1  0
 10 15  1  0
 11 13  1  0
 12 17  1  0
 12 20  1  0
 13 28  1  0
 14 25  1  0
 14 28  1  0
 15 29  1  0
 15 30  1  0
 16 18  1  0
 16 31  1  0
 17 18  1  0
 18 19  1  0
 19 26  1  0
 20 21  1  0
 20 26  1  0
 21 27  1  0
 21 32  1  0
 22 23  1  0
 22 27  1  0
M  END
$$$$
