7dcz_A_H3C_406
     RDKit          3D

 26 28  0  0  0  0  0  0  0  0999 V2000
   16.7270   37.1960   -9.3290 C   0  0  0  0  0  1  0  0  0  0  0  0
   20.7670   38.8870   -9.1580 C   0  0  0  0  0  2  0  0  0  0  0  0
   19.4460   38.6210   -9.5140 C   0  0  0  0  0  3  0  0  0  0  0  0
   21.3450   40.9150   -5.3710 C   0  0  0  0  0  3  0  0  0  0  0  0
   21.2310   41.6410   -4.0660 C   0  0  0  0  0  3  0  0  0  0  0  0
   19.9870   42.0240   -2.0950 C   0  0  0  0  0  2  0  0  0  0  0  0
   20.9380   42.9400   -1.6500 C   0  0  0  0  0  3  0  0  0  0  0  0
   22.0640   43.1980   -2.4350 C   0  0  0  0  0  2  0  0  0  0  0  0
   22.2140   42.5460   -3.6590 C   0  0  0  0  0  2  0  0  0  0  0  0
   20.7890   43.5180   -0.5100 C   0  0  0  0  0  2  0  0  0  0  0  0
   16.8820   38.6550   -8.9090 C   0  0  0  0  0  0  0  0  0  0  0  0
   15.4140   40.0110   -7.5380 C   0  0  0  0  0  3  0  0  0  0  0  0
   16.2850   40.8370   -9.9390 C   0  0  0  0  0  2  0  0  0  0  0  0
   16.5180   39.5330  -10.0970 C   0  0  0  0  0  2  0  0  0  0  0  0
   18.3360   38.9160   -8.5600 C   0  0  0  0  0  3  0  0  0  0  0  0
   18.6940   39.4590   -7.3310 C   0  0  0  0  0  2  0  0  0  0  0  0
   20.0290   39.7200   -7.0020 C   0  0  0  0  0  3  0  0  0  0  0  0
   21.0570   39.4320   -7.9060 C   0  0  0  0  0  2  0  0  0  0  0  0
   19.1810   38.0970  -10.7170 F   0  0  0  0  0  0  0  0  0  0  0  0
   16.0270   38.9140   -7.7480 N   0  0  0  0  0  2  0  0  0  0  0  0
   14.4930   40.0700   -6.5680 N   0  0  0  0  0  1  0  0  0  0  0  0
   20.2630   40.2460   -5.7750 N   0  0  0  0  0  2  0  0  0  0  0  0
   20.1510   41.4030   -3.2790 N   0  0  0  0  0  2  0  0  0  0  0  0
   20.6740   43.9850    0.5480 N   0  0  0  0  0  1  0  0  0  0  0  0
   22.4000   40.9450   -5.9880 O   0  0  0  0  0  1  0  0  0  0  0  0
   15.7440   41.3790   -8.4570 S   0  0  0  0  0  0  0  0  0  0  0  0
  1 11  1  0
  2  3  1  0
  2 18  1  0
  3 15  1  0
  3 19  1  0
  4  5  1  0
  4 22  1  0
  4 25  1  0
  5  9  1  0
  5 23  1  0
  6  7  1  0
  6 23  1  0
  7  8  1  0
  7 10  1  0
  8  9  1  0
 10 24  1  0
 11 14  1  0
 11 15  1  0
 11 20  1  0
 12 20  1  0
 12 21  1  0
 12 26  1  0
 13 14  1  0
 13 26  1  0
 15 16  1  0
 16 17  1  0
 17 18  1  0
 17 22  1  0
M  END
$$$$
