7myr_A_ZRD_401
     RDKit          3D

 27 46  0  0  0  0  0  0  0  0999 V2000
   15.4320   54.8710   88.0000 C   0  0  0  0  0  3  0  0  0  0  0  0
   15.9200   55.9280   88.8020 C   0  0  0  0  0  2  0  0  0  0  0  0
   24.4470   56.0840   85.1650 C   0  0  0  0  0  5  0  0  0  0  0  0
   24.9670   55.2430   85.7980 C   0  0  0  0  0  5  0  0  0  0  0  0
   20.4330   55.0450   87.1750 C   0  0  0  0  0  2  0  0  0  0  0  0
   16.3320   54.1450   87.1670 C   0  0  0  0  0  2  0  0  0  0  0  0
   18.0650   55.4730   87.9510 C   0  0  0  0  0  3  0  0  0  0  0  0
   20.0040   56.8750   88.8110 C   0  0  0  0  0  2  0  0  0  0  0  0
   21.3970   57.0300   88.1910 C   0  0  0  0  0  3  0  0  0  0  0  0
   22.4180   57.6870   89.1500 C   0  0  0  0  0  2  0  0  0  0  0  0
   22.5270   55.0310   90.0630 C   0  0  0  0  0  3  0  0  0  0  0  0
   21.7510   55.5650   87.8230 C   0  0  0  0  0  5  0  0  0  0  0  0
   22.8950   55.5370   86.8250 C   0  0  0  0  0  6  0  0  0  0  0  0
   22.9350   55.5940   86.8790 C   0  0  0  0  0  6  0  0  0  0  0  0
   23.0990   56.2830   85.6880 C   0  0  0  0  0  5  0  0  0  0  0  0
   24.1650   55.0770   87.0140 C   0  0  0  0  0  5  0  0  0  0  0  0
   14.1760   54.5420   88.0590 F   0  0  0  0  0  0  0  0  0  0  0  0
   17.2270   56.2450   88.8050 N   0  0  0  0  0  2  0  0  0  0  0  0
   19.4190   55.7840   87.9660 N   0  0  0  0  0  0  0  0  0  0  0  0
   22.8330   54.1020   91.0400 N   0  0  0  0  0  1  0  0  0  0  0  0
   22.0760   54.6590   88.9150 N   0  0  0  0  0  2  0  0  0  0  0  0
   24.3300   55.7890   84.7640 N   0  0  0  0  0  5  0  0  0  0  0  0
   25.2400   55.3040   85.9000 N   0  0  0  0  0  5  0  0  0  0  0  0
   17.6470   54.4320   87.1190 N   0  0  0  0  0  2  0  0  0  0  0  0
   22.7420   56.7250   90.6720 S   0  0  0  0  0  0  0  0  0  0  0  0
   22.7450   56.1340   85.2180 S   0  0  0  0  0  5  0  0  0  0  0  0
   24.3720   54.7780   87.2530 S   0  0  0  0  0  5  0  0  0  0  0  0
  1  2  1  0
  1  6  1  0
  1 17  1  0
  2 18  1  0
  3  4  1  0
  3 15  1  0
  3 22  1  0
  3 23  1  0
  3 26  1  0
  4 16  1  0
  4 22  1  0
  4 23  1  0
  4 27  1  0
  5 12  1  0
  5 19  1  0
  6 24  1  0
  7 18  1  0
  7 19  1  0
  7 24  1  0
  8  9  1  0
  8 19  1  0
  9 10  1  0
  9 12  1  0
 10 25  1  0
 11 20  1  0
 11 21  1  0
 11 25  1  0
 12 13  1  0
 12 14  1  0
 12 21  1  0
 13 14  1  0
 13 15  1  0
 13 16  1  0
 13 26  1  0
 13 27  1  0
 14 15  1  0
 14 16  1  0
 14 26  1  0
 14 27  1  0
 15 22  1  0
 15 26  1  0
 16 23  1  0
 16 27  1  0
 22 23  1  0
 22 26  1  0
 23 27  1  0
M  END
$$$$
