7myu_B_ZR7_401
     RDKit          3D

 35 39  0  0  0  0  0  0  0  0999 V2000
   65.5460   32.8720   73.4410 C   0  0  0  0  0  2  0  0  0  0  0  0
   65.7000   35.5260   72.4540 C   0  0  0  0  0  3  0  0  0  0  0  0
   66.0840   35.0390   75.7370 C   0  0  0  0  0  3  0  0  0  0  0  0
   65.9150   34.6100   77.1060 C   0  0  0  0  0  3  0  0  0  0  0  0
   66.9700   34.5420   78.0160 C   0  0  0  0  0  2  0  0  0  0  0  0
   68.2350   34.8960   77.5710 C   0  0  0  0  0  2  0  0  0  0  0  0
   68.4260   35.3220   76.2060 C   0  0  0  0  0  3  0  0  0  0  0  0
   67.3660   35.4040   75.3380 C   0  0  0  0  0  2  0  0  0  0  0  0
   70.8620   35.1800   76.0500 C   0  0  0  0  0  3  0  0  0  0  0  0
   72.0030   35.5070   75.2070 C   0  0  0  0  0  3  0  0  0  0  0  0
   73.2110   34.8130   75.4100 C   0  0  0  0  0  2  0  0  0  0  0  0
   74.1230   36.0820   73.7190 C   0  0  0  0  0  3  0  0  0  0  0  0
   64.9260   35.0280   74.7370 C   0  0  0  0  0  0  0  0  0  0  0  0
   72.8710   36.7940   73.5220 C   0  0  0  0  0  2  0  0  0  0  0  0
   75.1470   37.6880   72.3000 C   0  0  0  0  0  1  0  0  0  0  0  0
   64.5520   33.5710   74.3680 C   0  0  0  0  0  3  0  0  0  0  0  0
   63.1760   33.7320   73.7550 C   0  0  0  0  0  2  0  0  0  0  0  0
   63.5730   35.5720   75.2960 C   0  0  0  0  0  2  0  0  0  0  0  0
   61.2620   35.1710   74.4370 C   0  0  0  0  0  3  0  0  0  0  0  0
   59.1230   34.6670   73.6050 C   0  0  0  0  0  2  0  0  0  0  0  0
   58.6370   35.6850   74.4310 C   0  0  0  0  0  3  0  0  0  0  0  0
   59.5060   36.4190   75.2510 C   0  0  0  0  0  2  0  0  0  0  0  0
   57.3990   35.9790   74.4160 F   0  0  0  0  0  0  0  0  0  0  0  0
   64.7290   34.2840   77.5620 F   0  0  0  0  0  0  0  0  0  0  0  0
   65.2850   35.9370   73.6070 N   0  0  0  0  0  2  0  0  0  0  0  0
   62.5950   34.8610   74.4840 N   0  0  0  0  0  0  0  0  0  0  0  0
   60.4360   34.3910   73.5830 N   0  0  0  0  0  2  0  0  0  0  0  0
   60.8260   36.1930   75.2820 N   0  0  0  0  0  2  0  0  0  0  0  0
   69.6430   35.5230   75.5680 N   0  0  0  0  0  2  0  0  0  0  0  0
   74.2860   35.1110   74.6560 N   0  0  0  0  0  2  0  0  0  0  0  0
   71.8430   36.4810   74.2750 N   0  0  0  0  0  2  0  0  0  0  0  0
   65.9990   36.4410   71.4620 N   0  0  0  0  0  1  0  0  0  0  0  0
   71.0340   34.5730   77.0800 O   0  0  0  0  0  1  0  0  0  0  0  0
   75.1540   36.4100   72.9400 O   0  0  0  0  0  0  0  0  0  0  0  0
   65.9650   33.8190   71.9500 S   0  0  0  0  0  0  0  0  0  0  0  0
  1 16  1  0
  1 35  1  0
  2 25  1  0
  2 32  1  0
  2 35  1  0
  3  4  1  0
  3  8  1  0
  3 13  1  0
  4  5  1  0
  4 24  1  0
  5  6  1  0
  6  7  1  0
  7  8  1  0
  7 29  1  0
  9 10  1  0
  9 29  1  0
  9 33  1  0
 10 11  1  0
 10 31  1  0
 11 30  1  0
 12 14  1  0
 12 30  1  0
 12 34  1  0
 13 16  1  0
 13 18  1  0
 13 25  1  0
 14 31  1  0
 15 34  1  0
 16 17  1  0
 17 26  1  0
 18 26  1  0
 19 26  1  0
 19 27  1  0
 19 28  1  0
 20 21  1  0
 20 27  1  0
 21 22  1  0
 21 23  1  0
 22 28  1  0
M  END
$$$$
