1qti_A_GNT_600
     RDKit          3D

 21 24  0  0  0  0  0  0  0  0999 V2000
    2.5530   67.3160   62.6050 C   0  0  0  0  0  2  0  0  0  0  0  0
    2.5880   67.9390   65.7790 C   0  0  0  0  0  2  0  0  0  0  0  0
    3.8370   67.8410   64.8550 C   0  0  0  0  0  2  0  0  0  0  0  0
    4.5190   64.7850   63.1420 C   0  0  0  0  0  3  0  0  0  0  0  0
    3.5760   65.4640   63.9210 C   0  0  0  0  0  3  0  0  0  0  0  0
    2.7100   64.7950   64.8430 C   0  0  0  0  0  3  0  0  0  0  0  0
    5.8720   61.3440   62.4200 C   0  0  0  0  0  1  0  0  0  0  0  0
    1.3860   66.9580   67.6870 C   0  0  0  0  0  1  0  0  0  0  0  0
    2.7290   67.7550   61.3290 C   0  0  0  0  0  2  0  0  0  0  0  0
    4.0990   67.8980   60.6750 C   0  0  0  0  0  3  0  0  0  0  0  0
    5.2170   68.0400   61.7620 C   0  0  0  0  0  2  0  0  0  0  0  0
    5.1000   66.9120   62.8380 C   0  0  0  0  0  3  0  0  0  0  0  0
    3.6940   66.9260   63.5830 C   0  0  0  0  0  0  0  0  0  0  0  0
    4.6660   63.3810   63.2290 C   0  0  0  0  0  3  0  0  0  0  0  0
    3.8040   62.6760   64.1490 C   0  0  0  0  0  2  0  0  0  0  0  0
    2.8430   63.3810   64.9370 C   0  0  0  0  0  2  0  0  0  0  0  0
    1.6820   65.5880   65.6730 C   0  0  0  0  0  2  0  0  0  0  0  0
    2.2900   66.6590   66.5310 N   0  0  0  0  0  0  0  0  0  0  0  0
    5.6390   62.7660   62.4180 O   0  0  0  0  0  0  0  0  0  0  0  0
    4.3410   66.7390   59.8510 O   0  0  0  0  0  1  0  0  0  0  0  0
    5.2830   65.5770   62.2900 O   0  0  0  0  0  0  0  0  0  0  0  0
  1  9  1  0
  1 13  1  0
  2  3  1  0
  2 18  1  0
  3 13  1  0
  4  5  1  0
  4 14  1  0
  4 21  1  0
  5  6  1  0
  5 13  1  0
  6 16  1  0
  6 17  1  0
  7 19  1  0
  8 18  1  0
  9 10  1  0
 10 11  1  0
 10 20  1  0
 11 12  1  0
 12 13  1  0
 12 21  1  0
 14 15  1  0
 14 19  1  0
 15 16  1  0
 17 18  1  0
M  END
$$$$
