1vxr_A_VX_999
     RDKit          3D

  6  5  0  0  0  0  0  0  0  0999 V2000
    5.9270   62.3850   62.0890 C   0  0  0  0  0  1  0  0  0  0  0  0
    4.1700   65.1020   63.5710 C   0  0  0  0  0  2  0  0  0  0  0  0
    4.0550   64.1660   64.6270 C   0  0  0  0  0  1  0  0  0  0  0  0
    4.1770   64.0690   60.7950 O   0  0  0  0  0  1  0  0  0  0  0  0
    5.3320   64.9050   62.7160 O   0  0  0  0  0  0  0  0  0  0  0  0
    5.4110   64.0310   61.5890 P   0  0  0  0  0  0  0  0  0  0  0  0
  1  6  1  0
  2  3  1  0
  2  5  1  0
  4  6  1  0
  5  6  1  0
M  END
$$$$
