1w76_A_GNT_1538
     RDKit          3D

 21 24  0  0  0  0  0  0  0  0999 V2000
   93.0260   49.4920   19.8460 C   0  0  0  0  0  2  0  0  0  0  0  0
   95.9740   48.9230   19.9320 C   0  0  0  0  0  2  0  0  0  0  0  0
   94.9580   48.2770   20.9210 C   0  0  0  0  0  2  0  0  0  0  0  0
   92.7920   50.7300   22.6990 C   0  0  0  0  0  3  0  0  0  0  0  0
   93.9510   50.4520   21.9280 C   0  0  0  0  0  3  0  0  0  0  0  0
   95.0370   51.3480   21.8860 C   0  0  0  0  0  3  0  0  0  0  0  0
   91.6240   52.6470   25.5210 C   0  0  0  0  0  1  0  0  0  0  0  0
   98.0600   50.2920   19.7870 C   0  0  0  0  0  1  0  0  0  0  0  0
   91.8600   48.8880   19.4540 C   0  0  0  0  0  2  0  0  0  0  0  0
   91.0690   47.9260   20.3810 C   0  0  0  0  0  3  0  0  0  0  0  0
   91.9650   47.3780   21.5940 C   0  0  0  0  0  2  0  0  0  0  0  0
   92.6950   48.5840   22.2030 C   0  0  0  0  0  3  0  0  0  0  0  0
   93.7260   49.1760   21.2180 C   0  0  0  0  0  0  0  0  0  0  0  0
   92.6530   51.8990   23.4410 C   0  0  0  0  0  3  0  0  0  0  0  0
   93.7320   52.8190   23.3950 C   0  0  0  0  0  2  0  0  0  0  0  0
   94.8990   52.5340   22.6330 C   0  0  0  0  0  2  0  0  0  0  0  0
   96.3030   51.1460   21.1140 C   0  0  0  0  0  2  0  0  0  0  0  0
   96.7090   50.1650   20.3220 N   0  0  0  0  0  0  0  0  0  0  0  0
   91.4580   52.0820   24.2070 O   0  0  0  0  0  0  0  0  0  0  0  0
   89.9980   48.7290   20.8770 O   0  0  0  0  0  1  0  0  0  0  0  0
   91.8280   49.6980   22.6240 O   0  0  0  0  0  0  0  0  0  0  0  0
  1  9  1  0
  1 13  1  0
  2  3  1  0
  2 18  1  0
  3 13  1  0
  4  5  1  0
  4 14  1  0
  4 21  1  0
  5  6  1  0
  5 13  1  0
  6 16  1  0
  6 17  1  0
  7 19  1  0
  8 18  1  0
  9 10  1  0
 10 11  1  0
 10 20  1  0
 11 12  1  0
 12 13  1  0
 12 21  1  0
 14 15  1  0
 14 19  1  0
 15 16  1  0
 17 18  1  0
M  END
$$$$
