2v97_A_CFQ_1537
     RDKit          3D

 42 88  0  0  0  0  0  0  0  0999 V2000
  101.9880   57.4810   22.4990 As  0  0  0  0  0  8  0  0  0  0  0  0
  102.0510   57.7850   22.0070 As  0  0  0  0  0  7  0  0  0  0  0  0
  103.3920   56.0100   23.4430 C   0  0  0  0  0  2  0  0  0  0  0  0
  103.7650   56.7170   22.9840 C   0  0  0  0  0  3  0  0  0  0  0  0
   96.7680   53.7570   22.5120 C   0  0  0  0  0  5  0  0  0  0  0  0
   97.1430   52.7420   21.5960 C   0  0  0  0  0  0  0  0  0  0  0  0
   98.1310   53.6220   22.1920 C   0  0  0  0  0  6  0  0  0  0  0  0
   98.4850   53.0980   21.3650 C   0  0  0  0  0  3  0  0  0  0  0  0
   99.1150   54.1300   23.0600 C   0  0  0  0  0  0  0  0  0  0  0  0
   99.2220   53.7190   22.3790 C   0  0  0  0  0  0  0  0  0  0  0  0
  100.6210   53.8500   25.3720 C   0  0  0  0  0  8  0  0  0  0  0  0
  100.9120   54.2910   25.7840 C   0  0  0  0  0  8  0  0  0  0  0  0
  100.9170   56.4380   20.8320 C   0  0  0  0  0  3  0  0  0  0  0  0
  100.9860   56.3530   20.6480 C   0  0  0  0  0  3  0  0  0  0  0  0
  102.8650   59.4590   20.7540 C   0  0  0  0  0  2  0  0  0  0  0  0
  103.1610   59.1590   21.6140 C   0  0  0  0  0  3  0  0  0  0  0  0
  100.5170   58.2680   24.0100 C   0  0  0  0  0  0  0  0  0  0  0  0
  100.6460   58.6010   23.5560 C   0  0  0  0  0  0  0  0  0  0  0  0
   99.5290   57.1730   24.4640 C   0  0  0  0  0  0  0  0  0  0  0  0
  100.5380   57.6920   24.7990 C   0  0  0  0  0  0  0  0  0  0  0  0
   99.5050   54.7040   24.7430 C   0  0  0  0  0  5  0  0  0  0  0  0
   99.9190   55.3310   25.2110 C   0  0  0  0  0  6  0  0  0  0  0  0
   98.6300   54.0080   23.6610 C   0  0  0  0  0  6  0  0  0  0  0  0
   98.7600   54.7920   24.2890 C   0  0  0  0  0  6  0  0  0  0  0  0
   97.2540   53.6370   23.9110 C   0  0  0  0  0  6  0  0  0  0  0  0
   97.3450   54.9440   24.6260 C   0  0  0  0  0  6  0  0  0  0  0  0
   96.3750   54.4040   23.7050 C   0  0  0  0  0  5  0  0  0  0  0  0
   96.5320   53.0010   22.8470 C   0  0  0  0  0  0  0  0  0  0  0  0
  100.1350   52.7810   25.9680 F   0  0  0  0  0  3  0  0  0  0  0  0
  100.2930   53.1980   26.2230 F   0  0  0  0  0  3  0  0  0  0  0  0
  101.4850   53.3850   24.4850 F   0  0  0  0  0  3  0  0  0  0  0  0
  101.8050   53.8840   24.8870 F   0  0  0  0  0  4  0  0  0  0  0  0
  101.3080   54.5330   26.2720 F   0  0  0  0  0  4  0  0  0  0  0  0
  101.6000   54.7850   26.8080 F   0  0  0  0  0  2  0  0  0  0  0  0
   96.4720   53.8640   25.2210 N   0  0  0  0  0  5  0  0  0  0  0  0
   96.7610   55.6290   25.8870 N   0  0  0  0  0  4  0  0  0  0  0  0
  100.0580   55.8740   24.1040 O   0  0  0  0  0  5  0  0  0  0  0  0
  100.6450   56.2980   24.4190 O   0  0  0  0  0  4  0  0  0  0  0  0
   95.3090   53.5110   25.3490 O   0  0  0  0  0  1  0  0  0  0  0  0
   95.5620   55.7080   26.0870 O   0  0  0  0  0  1  0  0  0  0  0  0
   96.9640   54.4130   26.2060 O   0  0  0  0  0  3  0  0  0  0  0  0
   97.4590   56.1370   26.7520 O   0  0  0  0  0  1  0  0  0  0  0  0
  1  2  1  0
  1  3  1  0
  1  4  1  0
  1 13  1  0
  1 14  1  0
  1 16  1  0
  1 17  1  0
  1 18  1  0
  2  4  1  0
  2 13  1  0
  2 14  1  0
  2 15  1  0
  2 16  1  0
  2 18  1  0
  3  4  1  0
  5  6  1  0
  5  7  1  0
  5 25  1  0
  5 27  1  0
  5 28  1  0
  6  7  1  0
  6  8  1  0
  6 28  1  0
  7  8  1  0
  7  9  1  0
  7 10  1  0
  7 23  1  0
  8 10  1  0
  9 10  1  0
  9 23  1  0
  9 24  1  0
 10 23  1  0
 11 12  1  0
 11 21  1  0
 11 22  1  0
 11 29  1  0
 11 30  1  0
 11 31  1  0
 11 32  1  0
 11 33  1  0
 12 22  1  0
 12 29  1  0
 12 30  1  0
 12 31  1  0
 12 32  1  0
 12 33  1  0
 12 34  1  0
 13 14  1  0
 15 16  1  0
 17 18  1  0
 17 19  1  0
 17 20  1  0
 18 20  1  0
 19 20  1  0
 19 37  1  0
 19 38  1  0
 20 38  1  0
 21 22  1  0
 21 23  1  0
 21 24  1  0
 21 37  1  0
 22 24  1  0
 22 37  1  0
 22 38  1  0
 23 24  1  0
 23 25  1  0
 24 26  1  0
 24 37  1  0
 25 26  1  0
 25 27  1  0
 25 28  1  0
 25 35  1  0
 26 27  1  0
 26 35  1  0
 26 36  1  0
 26 41  1  0
 27 28  1  0
 27 35  1  0
 29 30  1  0
 31 32  1  0
 32 33  1  0
 33 34  1  0
 35 39  1  0
 35 41  1  0
 36 40  1  0
 36 41  1  0
 36 42  1  0
 37 38  1  0
M  END
$$$$
