2vja_B_CCD_1540
     RDKit          3D

 10  9  0  0  0  0  0  0  0  0999 V2000
   78.8500   56.9010   80.6160 C   0  0  0  0  0  1  0  0  0  0  0  0
   80.9930   55.9400   81.1040 C   0  0  0  0  0  2  0  0  0  0  0  0
   82.5440   56.0030   81.3550 C   0  0  0  0  0  2  0  0  0  0  0  0
   83.3090   55.4820   80.1240 C   0  0  0  0  0  2  0  0  0  0  0  0
   83.7840   54.0340   80.3100 C   0  0  0  0  0  3  0  0  0  0  0  0
   84.9840   53.5070   79.5120 C   0  0  0  0  0  1  0  0  0  0  0  0
   80.0680   57.8830   82.3820 C   0  0  0  0  0  1  0  0  0  0  0  0
   80.6770   58.2550   80.0790 C   0  0  0  0  0  1  0  0  0  0  0  0
   80.1990   57.2390   81.0560 N   0  0  0  0  0  4  0  0  0  0  0  0
   82.9920   53.1290   81.0630 O   0  0  0  0  0  1  0  0  0  0  0  0
  1  9  1  0
  2  3  1  0
  2  9  1  0
  3  4  1  0
  4  5  1  0
  5  6  1  0
  5 10  1  0
  7  9  1  0
  8  9  1  0
M  END
$$$$
