2vjc_A_CCD_1537
     RDKit          3D

 10  9  0  0  0  0  0  0  0  0999 V2000
   94.2050   49.0340   20.4170 C   0  0  0  0  0  1  0  0  0  0  0  0
   92.7100   50.4610   21.5740 C   0  0  0  0  0  2  0  0  0  0  0  0
   91.3840   51.1360   21.9540 C   0  0  0  0  0  2  0  0  0  0  0  0
   91.5630   52.1320   23.1030 C   0  0  0  0  0  2  0  0  0  0  0  0
   90.2530   52.8720   23.4020 C   0  0  0  0  0  3  0  0  0  0  0  0
   90.7880   53.9960   24.2910 C   0  0  0  0  0  1  0  0  0  0  0  0
   92.0460   48.1700   20.9050 C   0  0  0  0  0  1  0  0  0  0  0  0
   92.4130   49.8090   19.1810 C   0  0  0  0  0  1  0  0  0  0  0  0
   92.7810   49.3970   20.5460 N   0  0  0  0  0  4  0  0  0  0  0  0
   89.5830   53.6060   22.3740 O   0  0  0  0  0  1  0  0  0  0  0  0
  1  9  1  0
  2  3  1  0
  2  9  1  0
  3  4  1  0
  4  5  1  0
  5  6  1  0
  5 10  1  0
  7  9  1  0
  8  9  1  0
M  END
$$$$
