2vjc_A_CHH_1538
     RDKit          3D

 10  9  0  0  0  0  0  0  0  0999 V2000
  102.9660   58.6090   20.9030 C   0  0  0  0  0  1  0  0  0  0  0  0
  102.4630   56.5930   22.3350 C   0  0  0  0  0  2  0  0  0  0  0  0
  100.8750   56.4930   22.2260 C   0  0  0  0  0  2  0  0  0  0  0  0
  100.3220   55.3300   23.0690 C   0  0  0  0  0  2  0  0  0  0  0  0
  100.0490   54.0320   22.2500 C   0  0  0  0  0  3  0  0  0  0  0  0
   99.3880   52.8330   22.9540 C   0  0  0  0  0  1  0  0  0  0  0  0
  102.7210   58.9210   23.2860 C   0  0  0  0  0  1  0  0  0  0  0  0
  104.5760   57.7790   22.4130 C   0  0  0  0  0  1  0  0  0  0  0  0
  103.1340   57.9630   22.2300 N   0  0  0  0  0  4  0  0  0  0  0  0
  100.6280   53.8380   20.9360 O   0  0  0  0  0  1  0  0  0  0  0  0
  1  9  1  0
  2  3  1  0
  2  9  1  0
  3  4  1  0
  4  5  1  0
  5  6  1  0
  5 10  1  0
  7  9  1  0
  8  9  1  0
M  END
$$$$
