2vjd_A_CCD_1541
     RDKit          3D

 10  9  0  0  0  0  0  0  0  0999 V2000
   94.4120   49.0010   20.5280 C   0  0  0  0  0  1  0  0  0  0  0  0
   92.9240   50.4640   21.6670 C   0  0  0  0  0  2  0  0  0  0  0  0
   91.6030   51.1670   22.0170 C   0  0  0  0  0  2  0  0  0  0  0  0
   91.7350   52.1470   23.1850 C   0  0  0  0  0  2  0  0  0  0  0  0
   90.4130   52.8930   23.4220 C   0  0  0  0  0  3  0  0  0  0  0  0
   91.1720   53.8320   24.3650 C   0  0  0  0  0  1  0  0  0  0  0  0
   92.2610   48.1700   20.9960 C   0  0  0  0  0  1  0  0  0  0  0  0
   92.6120   49.8170   19.2730 C   0  0  0  0  0  1  0  0  0  0  0  0
   92.9950   49.4000   20.6350 N   0  0  0  0  0  4  0  0  0  0  0  0
   89.7560   53.6200   22.3780 O   0  0  0  0  0  1  0  0  0  0  0  0
  1  9  1  0
  2  3  1  0
  2  9  1  0
  3  4  1  0
  4  5  1  0
  5  6  1  0
  5 10  1  0
  7  9  1  0
  8  9  1  0
M  END
$$$$
