2vjd_A_CCD_1542
     RDKit          3D

 10  9  0  0  0  0  0  0  0  0999 V2000
  102.9010   59.0030   23.3180 C   0  0  0  0  0  1  0  0  0  0  0  0
  102.5350   56.6240   22.5310 C   0  0  0  0  0  2  0  0  0  0  0  0
  100.9450   56.5410   22.4390 C   0  0  0  0  0  2  0  0  0  0  0  0
  100.4150   55.4200   23.3550 C   0  0  0  0  0  2  0  0  0  0  0  0
  100.0010   54.1380   22.5880 C   0  0  0  0  0  3  0  0  0  0  0  0
   99.2060   53.0380   23.3300 C   0  0  0  0  0  1  0  0  0  0  0  0
  104.6900   57.7660   22.4350 C   0  0  0  0  0  1  0  0  0  0  0  0
  103.0260   58.5550   20.9610 C   0  0  0  0  0  1  0  0  0  0  0  0
  103.2420   57.9740   22.3090 N   0  0  0  0  0  4  0  0  0  0  0  0
  100.6210   53.8190   21.3160 O   0  0  0  0  0  1  0  0  0  0  0  0
  1  9  1  0
  2  3  1  0
  2  9  1  0
  3  4  1  0
  4  5  1  0
  5  6  1  0
  5 10  1  0
  7  9  1  0
  8  9  1  0
M  END
$$$$
