2wg1_A_FP1_605
     RDKit          3D

 10 10  0  0  0  0  0  0  0  0999 V2000
    2.4900   68.2980   63.0710 C   0  0  0  0  0  2  0  0  0  0  0  0
    2.9160   68.1870   61.7470 C   0  0  0  0  0  2  0  0  0  0  0  0
    4.2480   68.4460   61.4140 C   0  0  0  0  0  2  0  0  0  0  0  0
    5.1630   68.8320   62.3970 C   0  0  0  0  0  2  0  0  0  0  0  0
    4.7300   68.9420   63.7120 C   0  0  0  0  0  3  0  0  0  0  0  0
    5.5450   69.2710   64.5810 C   0  0  0  0  0  2  0  0  0  0  0  0
    2.9470   68.7750   65.4940 C   0  0  0  0  0  1  0  0  0  0  0  0
    3.3950   68.6800   64.0740 N   0  0  0  0  0  0  0  0  0  0  0  0
    6.3220   69.5850   65.4180 N   0  0  0  0  0  2  0  0  0  0  0  0
    7.6150   69.8120   65.0660 O   0  0  0  0  0  1  0  0  0  0  0  0
  1  2  1  0
  1  8  1  0
  2  3  1  0
  3  4  1  0
  4  5  1  0
  5  6  1  0
  5  8  1  0
  6  9  1  0
  7  8  1  0
  9 10  1  0
M  END
$$$$
