2wg2_A_GD8_2540
     RDKit          3D

 10  9  0  0  0  0  0  0  0  0999 V2000
    5.4700   62.6600   62.9210 C   0  0  0  0  0  1  0  0  0  0  0  0
    4.1180   66.6860   62.5390 C   0  0  0  0  0  3  0  0  0  0  0  0
    3.8980   67.3910   61.1780 C   0  0  0  0  0  1  0  0  0  0  0  0
    4.5390   67.6900   63.6300 C   0  0  0  0  0  0  0  0  0  0  0  0
    3.3070   68.3920   64.1740 C   0  0  0  0  0  1  0  0  0  0  0  0
    5.2140   66.9670   64.7930 C   0  0  0  0  0  1  0  0  0  0  0  0
    5.5080   68.7000   63.0140 C   0  0  0  0  0  1  0  0  0  0  0  0
    3.9750   63.5750   60.8410 O   0  0  0  0  0  1  0  0  0  0  0  0
    5.0000   65.2840   62.4360 O   0  0  0  0  0  0  0  0  0  0  0  0
    5.2030   63.8830   61.6330 P   0  0  0  0  0  0  0  0  0  0  0  0
  1 10  1  0
  2  3  1  0
  2  4  1  0
  2  9  1  0
  4  5  1  0
  4  6  1  0
  4  7  1  0
  8 10  1  0
  9 10  1  0
M  END
$$$$
