3i6m_A_G3X_1
     RDKit          3D

 29 33  0  0  0  0  0  0  0  0999 V2000
    2.5760   68.0970   63.2320 C   0  0  0  0  0  2  0  0  0  0  0  0
    2.3970   68.6250   66.1400 C   0  0  0  0  0  2  0  0  0  0  0  0
    3.7720   68.4980   65.4610 C   0  0  0  0  0  2  0  0  0  0  0  0
    4.6330   65.5580   63.6060 C   0  0  0  0  0  3  0  0  0  0  0  0
    3.6240   66.2330   64.2900 C   0  0  0  0  0  3  0  0  0  0  0  0
    2.6630   65.5720   65.0880 C   0  0  0  0  0  3  0  0  0  0  0  0
    5.4870   62.1210   62.7380 C   0  0  0  0  0  1  0  0  0  0  0  0
    0.7920   67.6620   67.7080 C   0  0  0  0  0  2  0  0  0  0  0  0
    2.7350   68.5370   61.9470 C   0  0  0  0  0  2  0  0  0  0  0  0
    0.6320   66.6180   68.8170 C   0  0  0  0  0  2  0  0  0  0  0  0
    1.8410   66.5920   69.7480 C   0  0  0  0  0  2  0  0  0  0  0  0
    3.1530   64.5320   69.4200 C   0  0  0  0  0  2  0  0  0  0  0  0
    4.2150   63.9100   68.5060 C   0  0  0  0  0  2  0  0  0  0  0  0
    5.5220   64.7140   68.5980 C   0  0  0  0  0  2  0  0  0  0  0  0
    5.2840   66.1830   68.2300 C   0  0  0  0  0  2  0  0  0  0  0  0
    4.2200   66.7890   69.1470 C   0  0  0  0  0  2  0  0  0  0  0  0
    4.1020   68.5730   61.2700 C   0  0  0  0  0  3  0  0  0  0  0  0
    5.1840   68.8450   62.3430 C   0  0  0  0  0  2  0  0  0  0  0  0
    5.1390   67.7630   63.4890 C   0  0  0  0  0  3  0  0  0  0  0  0
    3.7170   67.6190   64.1980 C   0  0  0  0  0  0  0  0  0  0  0  0
    4.7220   64.1510   63.7200 C   0  0  0  0  0  3  0  0  0  0  0  0
    3.7750   63.4550   64.5180 C   0  0  0  0  0  2  0  0  0  0  0  0
    2.7550   64.1640   65.1940 C   0  0  0  0  0  2  0  0  0  0  0  0
    1.4690   66.2790   65.7830 C   0  0  0  0  0  2  0  0  0  0  0  0
    1.8830   67.3520   66.7520 N   0  0  0  0  0  0  0  0  0  0  0  0
    2.9890   65.9680   69.0730 N   0  0  0  0  0  0  0  0  0  0  0  0
    5.7690   63.4940   63.0770 O   0  0  0  0  0  0  0  0  0  0  0  0
    4.3090   67.3090   60.6060 O   0  0  0  0  0  1  0  0  0  0  0  0
    5.4180   66.4380   62.9160 O   0  0  0  0  0  0  0  0  0  0  0  0
  1  9  1  0
  1 20  1  0
  2  3  1  0
  2 25  1  0
  3 20  1  0
  4  5  1  0
  4 21  1  0
  4 29  1  0
  5  6  1  0
  5 20  1  0
  6 23  1  0
  6 24  1  0
  7 27  1  0
  8 10  1  0
  8 25  1  0
  9 17  1  0
 10 11  1  0
 11 26  1  0
 12 13  1  0
 12 26  1  0
 13 14  1  0
 14 15  1  0
 15 16  1  0
 16 26  1  0
 17 18  1  0
 17 28  1  0
 18 19  1  0
 19 20  1  0
 19 29  1  0
 21 22  1  0
 21 27  1  0
 22 23  1  0
 24 25  1  0
M  END
$$$$
