4w63_A_HTB_605
     RDKit          3D

 33 37  0  0  0  0  0  0  0  0999 V2000
   65.9150  -37.1470   -1.9410 C   0  0  0  0  0  2  0  0  0  0  0  0
   62.1600  -27.4580    0.3710 C   0  0  0  0  0  2  0  0  0  0  0  0
   65.0510  -38.2360   -1.8780 C   0  0  0  0  0  2  0  0  0  0  0  0
   60.9070  -27.7960    0.8390 C   0  0  0  0  0  2  0  0  0  0  0  0
   65.7140  -36.1350   -2.8710 C   0  0  0  0  0  2  0  0  0  0  0  0
   62.3970  -27.6390   -0.9840 C   0  0  0  0  0  2  0  0  0  0  0  0
   63.9990  -38.2770   -2.7610 C   0  0  0  0  0  2  0  0  0  0  0  0
   59.9230  -28.2590   -0.0070 C   0  0  0  0  0  2  0  0  0  0  0  0
   64.3170  -35.4000   -4.6750 C   0  0  0  0  0  2  0  0  0  0  0  0
   58.7090  -33.3730   -1.9370 C   0  0  0  0  0  2  0  0  0  0  0  0
   58.5870  -34.0270   -3.3270 C   0  0  0  0  0  2  0  0  0  0  0  0
   58.1290  -31.9770   -2.0760 C   0  0  0  0  0  2  0  0  0  0  0  0
   59.7400  -33.5320   -4.1870 C   0  0  0  0  0  2  0  0  0  0  0  0
   57.3230  -31.5740   -0.8650 C   0  0  0  0  0  2  0  0  0  0  0  0
   60.4450  -29.7300   -6.0790 C   0  0  0  0  0  2  0  0  0  0  0  0
   59.0080  -29.2950   -5.9220 C   0  0  0  0  0  2  0  0  0  0  0  0
   60.7720  -34.6430   -4.5040 C   0  0  0  0  0  2  0  0  0  0  0  0
   57.7770  -30.1390   -0.6520 C   0  0  0  0  0  2  0  0  0  0  0  0
   61.3340  -28.8510   -5.3540 C   0  0  0  0  0  2  0  0  0  0  0  0
   58.5790  -29.6110   -4.5250 C   0  0  0  0  0  2  0  0  0  0  0  0
   62.3600  -35.3180   -6.3580 C   0  0  0  0  0  2  0  0  0  0  0  0
   63.2100  -35.9230   -5.2070 C   0  0  0  0  0  3  0  0  0  0  0  0
   60.8450  -28.7640   -4.0200 C   0  0  0  0  0  3  0  0  0  0  0  0
   59.5330  -29.0980   -3.6160 C   0  0  0  0  0  3  0  0  0  0  0  0
   59.1990  -28.9290   -2.2890 C   0  0  0  0  0  3  0  0  0  0  0  0
   64.6950  -36.2200   -3.7040 C   0  0  0  0  0  3  0  0  0  0  0  0
   61.4050  -28.1380   -1.8430 C   0  0  0  0  0  3  0  0  0  0  0  0
   63.8550  -37.2740   -3.6400 C   0  0  0  0  0  3  0  0  0  0  0  0
   60.1420  -28.4420   -1.3770 C   0  0  0  0  0  3  0  0  0  0  0  0
   61.7150  -28.2990   -3.1210 N   0  0  0  0  0  2  0  0  0  0  0  0
   61.0370  -34.7410   -5.9600 N   0  0  0  0  0  2  0  0  0  0  0  0
   57.9720  -29.3300   -1.8930 N   0  0  0  0  0  2  0  0  0  0  0  0
   62.8970  -37.0950   -4.6030 O   0  0  0  0  0  0  0  0  0  0  0  0
  1  3  1  0
  1  5  1  0
  2  4  1  0
  2  6  1  0
  3  7  1  0
  4  8  1  0
  5 26  1  0
  6 27  1  0
  7 28  1  0
  8 29  1  0
  9 22  1  0
  9 26  1  0
 10 11  1  0
 10 12  1  0
 11 13  1  0
 12 14  1  0
 13 17  1  0
 14 18  1  0
 15 16  1  0
 15 19  1  0
 16 20  1  0
 17 31  1  0
 18 32  1  0
 19 23  1  0
 20 24  1  0
 21 22  1  0
 21 31  1  0
 22 33  1  0
 23 24  1  0
 23 30  1  0
 24 25  1  0
 25 29  1  0
 25 32  1  0
 26 28  1  0
 27 29  1  0
 27 30  1  0
 28 33  1  0
M  END
$$$$
