5bwb_A_4VV_604
     RDKit          3D

 23 24  0  0  0  0  0  0  0  0999 V2000
  -51.9430   31.9610   21.9220 C   0  0  0  0  0  2  0  0  0  0  0  0
  -60.0070   36.7490   19.2510 C   0  0  0  0  0  2  0  0  0  0  0  0
  -58.9320   35.9760   19.0740 C   0  0  0  0  0  2  0  0  0  0  0  0
  -50.5230   31.4970   23.7490 C   0  0  0  0  0  2  0  0  0  0  0  0
  -53.0890   29.3190   22.9190 C   0  0  0  0  0  2  0  0  0  0  0  0
  -52.1340   30.1060   23.4350 C   0  0  0  0  0  3  0  0  0  0  0  0
  -50.8390   30.9650   24.9370 C   0  0  0  0  0  2  0  0  0  0  0  0
  -52.8080   32.9280   22.7240 C   0  0  0  0  0  2  0  0  0  0  0  0
  -52.7600   34.3290   22.1260 C   0  0  0  0  0  2  0  0  0  0  0  0
  -54.1400   34.9780   22.2520 C   0  0  0  0  0  2  0  0  0  0  0  0
  -54.8660   34.8790   20.9150 C   0  0  0  0  0  2  0  0  0  0  0  0
  -56.3670   34.6560   21.1220 C   0  0  0  0  0  2  0  0  0  0  0  0
  -57.1280   35.8130   20.4910 C   0  0  0  0  0  2  0  0  0  0  0  0
  -59.3750   36.0300   21.2010 C   0  0  0  0  0  3  0  0  0  0  0  0
  -59.3600   35.8320   22.5420 C   0  0  0  0  0  2  0  0  0  0  0  0
  -51.2950   30.9450   22.7910 N   0  0  0  0  0  0  0  0  0  0  0  0
  -58.5450   35.4950   20.2730 N   0  0  0  0  0  0  0  0  0  0  0  0
  -60.2840   36.3540   23.4090 N   0  0  0  0  0  2  0  0  0  0  0  0
  -60.2850   36.7790   20.5590 N   0  0  0  0  0  2  0  0  0  0  0  0
  -51.8310   30.1010   24.7430 N   0  0  0  0  0  2  0  0  0  0  0  0
  -53.7930   28.4780   23.7260 N   0  0  0  0  0  2  0  0  0  0  0  0
  -61.4140   37.1940   22.9270 O   0  0  0  0  0  1  0  0  0  0  0  0
  -54.9190   27.5600   23.0630 O   0  0  0  0  0  1  0  0  0  0  0  0
  1  8  1  0
  1 16  1  0
  2  3  1  0
  2 19  1  0
  3 17  1  0
  4  7  1  0
  4 16  1  0
  5  6  1  0
  5 21  1  0
  6 16  1  0
  6 20  1  0
  7 20  1  0
  8  9  1  0
  9 10  1  0
 10 11  1  0
 11 12  1  0
 12 13  1  0
 13 17  1  0
 14 15  1  0
 14 17  1  0
 14 19  1  0
 15 18  1  0
 18 22  1  0
 21 23  1  0
M  END
$$$$
