5bwc_A_HBP_603
     RDKit          3D

 25 26  0  0  0  0  0  0  0  0999 V2000
   59.0520  -33.1260   -1.2610 C   0  0  0  0  0  2  0  0  0  0  0  0
   56.5550  -37.1500    0.2890 C   0  0  0  0  0  2  0  0  0  0  0  0
   56.5110  -36.3700    1.5910 C   0  0  0  0  0  2  0  0  0  0  0  0
   55.1770  -36.3870    2.3570 C   0  0  0  0  0  2  0  0  0  0  0  0
   57.8770  -34.0810   -1.3610 C   0  0  0  0  0  2  0  0  0  0  0  0
   54.3290  -37.9240    4.0110 C   0  0  0  0  0  2  0  0  0  0  0  0
   54.3410  -38.5860    5.2350 C   0  0  0  0  0  2  0  0  0  0  0  0
   55.3380  -38.3230    6.1580 C   0  0  0  0  0  2  0  0  0  0  0  0
   56.3130  -37.3940    5.8280 C   0  0  0  0  0  2  0  0  0  0  0  0
   56.2710  -36.7310    4.5940 C   0  0  0  0  0  3  0  0  0  0  0  0
   57.3910  -35.7960    4.2870 C   0  0  0  0  0  2  0  0  0  0  0  0
   57.9350  -31.0450   -1.7250 C   0  0  0  0  0  2  0  0  0  0  0  0
   57.6630  -29.9110   -2.4850 C   0  0  0  0  0  2  0  0  0  0  0  0
   58.1930  -35.4650   -0.8020 C   0  0  0  0  0  2  0  0  0  0  0  0
   58.2980  -29.7090   -3.7010 C   0  0  0  0  0  2  0  0  0  0  0  0
   59.2130  -30.6390   -4.1510 C   0  0  0  0  0  2  0  0  0  0  0  0
   59.4790  -31.7750   -3.3860 C   0  0  0  0  0  3  0  0  0  0  0  0
   56.9280  -36.3070   -0.9210 C   0  0  0  0  0  2  0  0  0  0  0  0
   60.4700  -32.7650   -3.8740 C   0  0  0  0  0  2  0  0  0  0  0  0
   58.8170  -31.9640   -2.1410 N   0  0  0  0  0  0  0  0  0  0  0  0
   55.2850  -37.0280    3.6890 N   0  0  0  0  0  0  0  0  0  0  0  0
   58.4430  -35.7890    4.9830 N   0  0  0  0  0  2  0  0  0  0  0  0
   61.1030  -32.6050   -4.9510 N   0  0  0  0  0  2  0  0  0  0  0  0
   62.0340  -33.5660   -5.3320 O   0  0  0  0  0  1  0  0  0  0  0  0
   59.4760  -34.9400    4.5970 O   0  0  0  0  0  1  0  0  0  0  0  0
  1  5  1  0
  1 20  1  0
  2  3  1  0
  2 18  1  0
  3  4  1  0
  4 21  1  0
  5 14  1  0
  6  7  1  0
  6 21  1  0
  7  8  1  0
  8  9  1  0
  9 10  1  0
 10 11  1  0
 10 21  1  0
 11 22  1  0
 12 13  1  0
 12 20  1  0
 13 15  1  0
 14 18  1  0
 15 16  1  0
 16 17  1  0
 17 19  1  0
 17 20  1  0
 19 23  1  0
 22 25  1  0
 23 24  1  0
M  END
$$$$
