5dlp_A_MBT_601
     RDKit          3D

 20 22  0  0  0  0  0  0  0  0999 V2000
  -53.5620   34.0960   23.7510 C   0  0  0  0  0  3  0  0  0  0  0  0
  -51.6880   31.5480   25.6160 C   0  0  0  0  0  2  0  0  0  0  0  0
  -55.9790   34.4950   23.2910 C   0  0  0  0  0  2  0  0  0  0  0  0
  -55.6510   35.6480   22.5460 C   0  0  0  0  0  3  0  0  0  0  0  0
  -54.2880   35.9900   22.4210 C   0  0  0  0  0  2  0  0  0  0  0  0
  -53.2700   35.2310   23.0090 C   0  0  0  0  0  2  0  0  0  0  0  0
  -54.5510   28.0380   27.7470 C   0  0  0  0  0  1  0  0  0  0  0  0
  -52.0800   27.9720   27.9900 C   0  0  0  0  0  1  0  0  0  0  0  0
  -58.0890   36.0890   22.0600 C   0  0  0  0  0  1  0  0  0  0  0  0
  -54.9920   33.7180   23.8980 C   0  0  0  0  0  3  0  0  0  0  0  0
  -56.3370   37.6410   21.1730 C   0  0  0  0  0  1  0  0  0  0  0  0
  -54.1070   31.6880   25.3330 C   0  0  0  0  0  3  0  0  0  0  0  0
  -52.7610   32.2400   25.0670 C   0  0  0  0  0  3  0  0  0  0  0  0
  -54.2230   30.5220   26.0980 C   0  0  0  0  0  2  0  0  0  0  0  0
  -53.1170   29.8440   26.6500 C   0  0  0  0  0  3  0  0  0  0  0  0
  -51.8490   30.3910   26.3850 C   0  0  0  0  0  2  0  0  0  0  0  0
  -53.2560   28.6530   27.4390 N   0  0  0  0  0  0  0  0  0  0  0  0
  -56.6720   36.4410   21.9370 N   0  0  0  0  0  0  0  0  0  0  0  0
  -52.5680   33.3660   24.3220 N   0  0  0  0  0  2  0  0  0  0  0  0
  -55.3960   32.4160   24.7270 S   0  0  0  0  0  0  0  0  0  0  0  0
  1  6  1  0
  1 10  1  0
  1 19  1  0
  2 13  1  0
  2 16  1  0
  3  4  1  0
  3 10  1  0
  4  5  1  0
  4 18  1  0
  5  6  1  0
  7 17  1  0
  8 17  1  0
  9 18  1  0
 10 20  1  0
 11 18  1  0
 12 13  1  0
 12 14  1  0
 12 20  1  0
 13 19  1  0
 14 15  1  0
 15 16  1  0
 15 17  1  0
M  END
$$$$
