5ehx_A_03S_603
     RDKit          3D

  4  3  0  0  0  0  0  0  0  0999 V2000
  -51.2640   35.7630  153.7430 C   0  0  0  0  0  1  0  0  0  0  0  0
  -53.2700   37.2300  153.6900 O   0  0  0  0  0  1  0  0  0  0  0  0
  -53.1110   35.6110  152.0150 O   0  0  0  0  0  1  0  0  0  0  0  0
  -52.3310   36.5810  152.8210 S   0  0  0  0  0  3  0  0  0  0  0  0
  1  4  1  0
  2  4  1  0
  3  4  1  0
M  END
$$$$
