6euc_A_RM0_604
     RDKit          3D

 21 22  0  0  0  0  0  0  0  0999 V2000
   54.5830  164.7820  181.9430 C   0  0  0  0  0  3  0  0  0  0  0  0
   55.9050  163.5950  183.9020 C   0  0  0  0  0  2  0  0  0  0  0  0
   55.7930  164.7660  182.9030 C   0  0  0  0  0  2  0  0  0  0  0  0
   53.7700  164.4220  179.7900 C   0  0  0  0  0  3  0  0  0  0  0  0
   52.5060  164.8280  180.1920 C   0  0  0  0  0  3  0  0  0  0  0  0
   52.2650  165.2310  181.5090 C   0  0  0  0  0  2  0  0  0  0  0  0
   53.3400  165.2080  182.4090 C   0  0  0  0  0  2  0  0  0  0  0  0
   54.0150  163.9870  178.3410 C   0  0  0  0  0  2  0  0  0  0  0  0
   61.4670  162.1570  188.4440 C   0  0  0  0  0  2  0  0  0  0  0  0
   60.8430  162.8340  187.2180 C   0  0  0  0  0  2  0  0  0  0  0  0
   59.6960  160.8870  186.7640 C   0  0  0  0  0  2  0  0  0  0  0  0
   60.3360  160.2380  187.9990 C   0  0  0  0  0  2  0  0  0  0  0  0
   59.3060  162.7260  185.6830 C   0  0  0  0  0  2  0  0  0  0  0  0
   57.7790  162.7210  185.4970 C   0  0  0  0  0  2  0  0  0  0  0  0
   57.3990  163.3920  184.1740 C   0  0  0  0  0  2  0  0  0  0  0  0
   52.7820  164.1060  177.5690 N   0  0  0  0  0  2  0  0  0  0  0  0
   59.6430  162.2700  186.8260 N   0  0  0  0  0  0  0  0  0  0  0  0
   54.7620  164.4110  180.6740 N   0  0  0  0  0  2  0  0  0  0  0  0
   61.5690  160.7880  188.2960 O   0  0  0  0  0  0  0  0  0  0  0  0
   51.4630  164.8290  179.2580 O   0  0  0  0  0  1  0  0  0  0  0  0
   52.9890  164.2750  176.1630 O   0  0  0  0  0  1  0  0  0  0  0  0
  1  3  1  0
  1  7  1  0
  1 18  1  0
  2  3  1  0
  2 15  1  0
  4  5  1  0
  4  8  1  0
  4 18  1  0
  5  6  1  0
  5 20  1  0
  6  7  1  0
  8 16  1  0
  9 10  1  0
  9 19  1  0
 10 17  1  0
 11 12  1  0
 11 17  1  0
 12 19  1  0
 13 14  1  0
 13 17  1  0
 14 15  1  0
 16 21  1  0
M  END
$$$$
