6ezg_A_C6K_603
     RDKit          3D

 29 32  0  0  0  0  0  0  0  0999 V2000
   -7.3450    1.9250   48.5140 C   0  0  0  0  0  1  0  0  0  0  0  0
   -8.0150    2.6080   50.7930 C   0  0  0  0  0  3  0  0  0  0  0  0
   -7.6920    1.5050   51.6290 C   0  0  0  0  0  3  0  0  0  0  0  0
   -6.5530    0.6260   51.2570 C   0  0  0  0  0  3  0  0  0  0  0  0
   -6.7080   -0.8840   51.1670 C   0  0  0  0  0  2  0  0  0  0  0  0
   -7.1910   -1.4670   52.4630 C   0  0  0  0  0  2  0  0  0  0  0  0
   -6.3290   -2.6550   52.9760 C   0  0  0  0  0  3  0  0  0  0  0  0
   -4.9750   -2.5110   52.5400 C   0  0  0  0  0  2  0  0  0  0  0  0
   -4.1290   -3.6430   53.1110 C   0  0  0  0  0  2  0  0  0  0  0  0
   -3.6290   -4.7100   54.9810 C   0  0  0  0  0  2  0  0  0  0  0  0
   -2.0570   -4.5390   55.0330 C   0  0  0  0  0  3  0  0  0  0  0  0
   -1.4940   -3.8130   56.0200 C   0  0  0  0  0  2  0  0  0  0  0  0
   -0.1130   -3.6590   56.0710 C   0  0  0  0  0  2  0  0  0  0  0  0
    0.6790   -4.2670   55.1140 C   0  0  0  0  0  2  0  0  0  0  0  0
    0.1010   -5.0220   54.1020 C   0  0  0  0  0  2  0  0  0  0  0  0
   -1.2340   -5.1670   54.0480 C   0  0  0  0  0  2  0  0  0  0  0  0
   -5.5010   -3.6970   55.0860 C   0  0  0  0  0  2  0  0  0  0  0  0
   -6.4200   -2.6510   54.4280 C   0  0  0  0  0  2  0  0  0  0  0  0
   -8.4240    1.2490   52.8030 C   0  0  0  0  0  2  0  0  0  0  0  0
   -9.5240    2.0950   53.1600 C   0  0  0  0  0  3  0  0  0  0  0  0
   -9.8910    3.2510   52.3170 C   0  0  0  0  0  3  0  0  0  0  0  0
  -10.8110    5.0540   51.4190 C   0  0  0  0  0  2  0  0  0  0  0  0
   -9.7780    4.6850   50.5930 C   0  0  0  0  0  2  0  0  0  0  0  0
   -9.1780    3.5140   51.1790 C   0  0  0  0  0  3  0  0  0  0  0  0
  -10.4160    1.7530   54.5880 Cl  0  0  0  0  0  0  0  0  0  0  0  0
   -4.1760   -3.7030   54.5880 N   0  0  0  0  0  0  0  0  0  0  0  0
  -10.8830    4.1890   52.4650 N   0  0  0  0  0  2  0  0  0  0  0  0
   -7.2310    2.8470   49.6330 O   0  0  0  0  0  0  0  0  0  0  0  0
   -5.4690    1.1460   51.0060 O   0  0  0  0  0  1  0  0  0  0  0  0
  1 28  1  0
  2  3  1  0
  2 24  1  0
  2 28  1  0
  3  4  1  0
  3 19  1  0
  4  5  1  0
  4 29  1  0
  5  6  1  0
  6  7  1  0
  7  8  1  0
  7 18  1  0
  8  9  1  0
  9 26  1  0
 10 11  1  0
 10 26  1  0
 11 12  1  0
 11 16  1  0
 12 13  1  0
 13 14  1  0
 14 15  1  0
 15 16  1  0
 17 18  1  0
 17 26  1  0
 19 20  1  0
 20 21  1  0
 20 25  1  0
 21 24  1  0
 21 27  1  0
 22 23  1  0
 22 27  1  0
 23 24  1  0
M  END
$$$$
