6ezg_B_C6K_603
     RDKit          3D

 29 32  0  0  0  0  0  0  0  0999 V2000
    9.9790    0.0290   -6.8420 C   0  0  0  0  0  1  0  0  0  0  0  0
    9.1210    1.3210   -4.9330 C   0  0  0  0  0  3  0  0  0  0  0  0
    8.3850    1.2450   -3.7260 C   0  0  0  0  0  3  0  0  0  0  0  0
    7.3850    0.1550   -3.5180 C   0  0  0  0  0  3  0  0  0  0  0  0
    7.6080   -1.1980   -4.1820 C   0  0  0  0  0  2  0  0  0  0  0  0
    6.7860   -2.3120   -3.5950 C   0  0  0  0  0  2  0  0  0  0  0  0
    5.9240   -2.9480   -4.7260 C   0  0  0  0  0  3  0  0  0  0  0  0
    6.7510   -3.7040   -5.6100 C   0  0  0  0  0  2  0  0  0  0  0  0
    5.9410   -4.3670   -6.7160 C   0  0  0  0  0  2  0  0  0  0  0  0
    4.0800   -5.6180   -6.9290 C   0  0  0  0  0  2  0  0  0  0  0  0
    2.4860   -5.6690   -6.8910 C   0  0  0  0  0  3  0  0  0  0  0  0
    1.7680   -5.0200   -7.8390 C   0  0  0  0  0  2  0  0  0  0  0  0
    0.3730   -5.0480   -7.8130 C   0  0  0  0  0  2  0  0  0  0  0  0
   -0.2930   -5.7480   -6.8130 C   0  0  0  0  0  2  0  0  0  0  0  0
    0.4380   -6.4290   -5.8420 C   0  0  0  0  0  2  0  0  0  0  0  0
    1.7920   -6.3980   -5.8670 C   0  0  0  0  0  2  0  0  0  0  0  0
    3.9310   -4.2570   -5.2240 C   0  0  0  0  0  2  0  0  0  0  0  0
    4.9050   -3.7900   -4.1360 C   0  0  0  0  0  2  0  0  0  0  0  0
    8.6100    2.1930   -2.6970 C   0  0  0  0  0  2  0  0  0  0  0  0
    9.5850    3.2470   -2.8750 C   0  0  0  0  0  3  0  0  0  0  0  0
   10.3510    3.3360   -4.1360 C   0  0  0  0  0  3  0  0  0  0  0  0
   11.7210    3.8990   -5.7860 C   0  0  0  0  0  2  0  0  0  0  0  0
   11.0250    2.7970   -6.1850 C   0  0  0  0  0  2  0  0  0  0  0  0
   10.1420    2.4280   -5.1200 C   0  0  0  0  0  3  0  0  0  0  0  0
    9.8710    4.4180   -1.6440 Cl  0  0  0  0  0  0  0  0  0  0  0  0
    4.4920   -4.5620   -6.4880 N   0  0  0  0  0  0  0  0  0  0  0  0
   11.3090    4.2280   -4.5440 N   0  0  0  0  0  2  0  0  0  0  0  0
    8.8760    0.3770   -5.9560 O   0  0  0  0  0  0  0  0  0  0  0  0
    6.4110    0.3390   -2.7860 O   0  0  0  0  0  1  0  0  0  0  0  0
  1 28  1  0
  2  3  1  0
  2 24  1  0
  2 28  1  0
  3  4  1  0
  3 19  1  0
  4  5  1  0
  4 29  1  0
  5  6  1  0
  6  7  1  0
  7  8  1  0
  7 18  1  0
  8  9  1  0
  9 26  1  0
 10 11  1  0
 10 26  1  0
 11 12  1  0
 11 16  1  0
 12 13  1  0
 13 14  1  0
 14 15  1  0
 15 16  1  0
 17 18  1  0
 17 26  1  0
 19 20  1  0
 20 21  1  0
 20 25  1  0
 21 24  1  0
 21 27  1  0
 22 23  1  0
 22 27  1  0
 23 24  1  0
M  END
$$$$
