6ezh_B_C6H_603
     RDKit          3D

 29 32  0  0  0  0  0  0  0  0999 V2000
    8.3020    0.6030   -6.7250 C   0  0  0  0  0  1  0  0  0  0  0  0
    8.9020    1.4390   -4.5770 C   0  0  0  0  0  3  0  0  0  0  0  0
    8.1600    1.6130   -3.3660 C   0  0  0  0  0  3  0  0  0  0  0  0
    6.9970    0.6430   -2.8670 C   0  0  0  0  0  3  0  0  0  0  0  0
    6.2680   -0.3090   -3.8230 C   0  0  0  0  0  2  0  0  0  0  0  0
    6.8370   -1.7530   -3.9450 C   0  0  0  0  0  2  0  0  0  0  0  0
    5.7660   -2.5990   -4.8600 C   0  0  0  0  0  3  0  0  0  0  0  0
    5.0140   -3.5320   -4.0680 C   0  0  0  0  0  2  0  0  0  0  0  0
    3.9060   -4.0970   -4.9130 C   0  0  0  0  0  2  0  0  0  0  0  0
    3.5770   -5.1770   -6.9260 C   0  0  0  0  0  2  0  0  0  0  0  0
    2.0890   -5.0290   -6.5540 C   0  0  0  0  0  3  0  0  0  0  0  0
    1.3220   -4.3380   -7.6720 C   0  0  0  0  0  2  0  0  0  0  0  0
   -0.1760   -4.2360   -7.3600 C   0  0  0  0  0  2  0  0  0  0  0  0
   -0.7780   -5.6090   -7.0980 C   0  0  0  0  0  2  0  0  0  0  0  0
   -0.0350   -6.3310   -5.9810 C   0  0  0  0  0  2  0  0  0  0  0  0
    1.4670   -6.4050   -6.2300 C   0  0  0  0  0  2  0  0  0  0  0  0
    5.3510   -3.8530   -6.8770 C   0  0  0  0  0  2  0  0  0  0  0  0
    6.4080   -3.2660   -5.9800 C   0  0  0  0  0  2  0  0  0  0  0  0
    8.4600    2.7150   -2.5530 C   0  0  0  0  0  2  0  0  0  0  0  0
    9.4740    3.6570   -2.8920 C   0  0  0  0  0  3  0  0  0  0  0  0
   10.2210    3.4830   -4.1000 C   0  0  0  0  0  3  0  0  0  0  0  0
   11.6470    3.7000   -5.7850 C   0  0  0  0  0  2  0  0  0  0  0  0
   10.8810    2.5300   -6.0340 C   0  0  0  0  0  2  0  0  0  0  0  0
    9.9440    2.3910   -4.9240 C   0  0  0  0  0  3  0  0  0  0  0  0
    9.7910    5.0120   -1.8250 Cl  0  0  0  0  0  0  0  0  0  0  0  0
    4.3940   -4.6650   -6.1750 N   0  0  0  0  0  0  0  0  0  0  0  0
   11.2380    4.2330   -4.6550 N   0  0  0  0  0  2  0  0  0  0  0  0
    8.6550    0.3330   -5.4270 O   0  0  0  0  0  0  0  0  0  0  0  0
    6.6220    0.6770   -1.7050 O   0  0  0  0  0  1  0  0  0  0  0  0
  1 28  1  0
  2  3  1  0
  2 24  1  0
  2 28  1  0
  3  4  1  0
  3 19  1  0
  4  5  1  0
  4 29  1  0
  5  6  1  0
  6  7  1  0
  7  8  1  0
  7 18  1  0
  8  9  1  0
  9 26  1  0
 10 11  1  0
 10 26  1  0
 11 12  1  0
 11 16  1  0
 12 13  1  0
 13 14  1  0
 14 15  1  0
 15 16  1  0
 17 18  1  0
 17 26  1  0
 19 20  1  0
 20 21  1  0
 20 25  1  0
 21 24  1  0
 21 27  1  0
 22 23  1  0
 22 27  1  0
 23 24  1  0
M  END
$$$$
