6ezh_A_C6H_603
     RDKit          3D

 29 32  0  0  0  0  0  0  0  0999 V2000
   -8.3390    1.2470   55.1230 C   0  0  0  0  0  1  0  0  0  0  0  0
   -9.0740    1.7640   52.9960 C   0  0  0  0  0  3  0  0  0  0  0  0
   -8.2420    1.7300   51.8590 C   0  0  0  0  0  3  0  0  0  0  0  0
   -7.1350    0.6080   51.6220 C   0  0  0  0  0  3  0  0  0  0  0  0
   -7.3480   -0.7970   52.1870 C   0  0  0  0  0  2  0  0  0  0  0  0
   -6.2250   -1.7310   51.6770 C   0  0  0  0  0  2  0  0  0  0  0  0
   -5.1680   -1.9430   52.9040 C   0  0  0  0  0  3  0  0  0  0  0  0
   -5.9250   -2.3740   54.0620 C   0  0  0  0  0  2  0  0  0  0  0  0
   -5.1960   -3.2060   55.1000 C   0  0  0  0  0  2  0  0  0  0  0  0
   -3.0110   -3.4510   55.1150 C   0  0  0  0  0  2  0  0  0  0  0  0
   -1.6250   -4.0370   54.7770 C   0  0  0  0  0  3  0  0  0  0  0  0
   -0.6440   -3.5270   55.8240 C   0  0  0  0  0  2  0  0  0  0  0  0
    0.7950   -3.9020   55.4770 C   0  0  0  0  0  2  0  0  0  0  0  0
    0.9440   -5.4000   55.2080 C   0  0  0  0  0  2  0  0  0  0  0  0
   -0.1190   -5.9480   54.2530 C   0  0  0  0  0  2  0  0  0  0  0  0
   -1.5090   -5.5760   54.7490 C   0  0  0  0  0  2  0  0  0  0  0  0
   -4.0350   -4.1160   53.2140 C   0  0  0  0  0  2  0  0  0  0  0  0
   -4.1150   -2.8380   52.4330 C   0  0  0  0  0  2  0  0  0  0  0  0
   -8.4260    2.7260   50.8920 C   0  0  0  0  0  2  0  0  0  0  0  0
   -9.4130    3.7530   50.9940 C   0  0  0  0  0  3  0  0  0  0  0  0
  -10.2300    3.7800   52.1550 C   0  0  0  0  0  3  0  0  0  0  0  0
  -11.7140    4.2760   53.7110 C   0  0  0  0  0  2  0  0  0  0  0  0
  -11.0400    3.1130   54.1820 C   0  0  0  0  0  2  0  0  0  0  0  0
  -10.0640    2.8010   53.1370 C   0  0  0  0  0  3  0  0  0  0  0  0
   -9.5770    4.9600   49.7260 Cl  0  0  0  0  0  0  0  0  0  0  0  0
   -4.0230   -3.9460   54.6470 N   0  0  0  0  0  0  0  0  0  0  0  0
  -11.2240    4.6340   52.5350 N   0  0  0  0  0  2  0  0  0  0  0  0
   -8.9670    0.8050   54.0020 O   0  0  0  0  0  0  0  0  0  0  0  0
   -6.1060    0.8100   50.9810 O   0  0  0  0  0  1  0  0  0  0  0  0
  1 28  1  0
  2  3  1  0
  2 24  1  0
  2 28  1  0
  3  4  1  0
  3 19  1  0
  4  5  1  0
  4 29  1  0
  5  6  1  0
  6  7  1  0
  7  8  1  0
  7 18  1  0
  8  9  1  0
  9 26  1  0
 10 11  1  0
 10 26  1  0
 11 12  1  0
 11 16  1  0
 12 13  1  0
 13 14  1  0
 14 15  1  0
 15 16  1  0
 17 18  1  0
 17 26  1  0
 19 20  1  0
 20 21  1  0
 20 25  1  0
 21 24  1  0
 21 27  1  0
 22 23  1  0
 22 27  1  0
 23 24  1  0
M  END
$$$$
