6fld_A_1PG_605
     RDKit          3D

 16 15  0  0  0  0  0  0  0  0999 V2000
    3.7420  135.2320  159.1190 C   0  0  0  0  0  2  0  0  0  0  0  0
    5.0690  135.9830  158.6410 C   0  0  0  0  0  2  0  0  0  0  0  0
   -0.8640  136.7750  153.2850 C   0  0  0  0  0  2  0  0  0  0  0  0
   -1.3530  138.1340  153.9100 C   0  0  0  0  0  2  0  0  0  0  0  0
   -1.2390  137.8010  156.2600 C   0  0  0  0  0  2  0  0  0  0  0  0
   -1.1050  138.8580  157.3790 C   0  0  0  0  0  2  0  0  0  0  0  0
   -0.9670  136.9740  158.8960 C   0  0  0  0  0  2  0  0  0  0  0  0
   -0.8830  136.7840  160.4560 C   0  0  0  0  0  2  0  0  0  0  0  0
    1.3620  136.2020  160.9070 C   0  0  0  0  0  2  0  0  0  0  0  0
    2.3130  134.9900  161.0640 C   0  0  0  0  0  2  0  0  0  0  0  0
    0.4430  136.5880  153.7980 O   0  0  0  0  0  1  0  0  0  0  0  0
   -0.6270  138.3770  155.1450 O   0  0  0  0  0  0  0  0  0  0  0  0
   -1.5430  138.2440  158.6300 O   0  0  0  0  0  0  0  0  0  0  0  0
    0.0500  135.7290  160.6750 O   0  0  0  0  0  0  0  0  0  0  0  0
    3.5960  135.4230  160.5500 O   0  0  0  0  0  0  0  0  0  0  0  0
    4.7140  137.3250  158.2930 O   0  0  0  0  0  1  0  0  0  0  0  0
  1  2  1  0
  1 15  1  0
  2 16  1  0
  3  4  1  0
  3 11  1  0
  4 12  1  0
  5  6  1  0
  5 12  1  0
  6 13  1  0
  7  8  1  0
  7 13  1  0
  8 14  1  0
  9 10  1  0
  9 14  1  0
 10 15  1  0
M  END
$$$$
