6g1u_B_E1K_605
     RDKit          3D

 17 19  0  0  0  0  0  0  0  0999 V2000
    6.7920  -61.3520   -5.4840 C   0  0  0  0  0  2  0  0  0  0  0  0
    6.9630  -60.9140   -6.9130 C   0  0  0  0  0  2  0  0  0  0  0  0
    6.1490  -59.6640   -7.0640 C   0  0  0  0  0  2  0  0  0  0  0  0
    4.8220  -59.9020   -6.6960 C   0  0  0  0  0  3  0  0  0  0  0  0
    2.5650  -59.2410   -6.8730 C   0  0  0  0  0  3  0  0  0  0  0  0
    1.6110  -58.3780   -7.3950 C   0  0  0  0  0  2  0  0  0  0  0  0
    0.2730  -58.5510   -7.0710 C   0  0  0  0  0  3  0  0  0  0  0  0
   -0.1320  -59.5800   -6.2330 C   0  0  0  0  0  2  0  0  0  0  0  0
    0.8170  -60.4460   -5.7110 C   0  0  0  0  0  2  0  0  0  0  0  0
    2.1590  -60.2710   -6.0350 C   0  0  0  0  0  3  0  0  0  0  0  0
    3.1320  -61.1120   -5.5290 C   0  0  0  0  0  3  0  0  0  0  0  0
    4.4690  -60.9490   -5.8360 C   0  0  0  0  0  3  0  0  0  0  0  0
    5.3840  -61.8490   -5.3030 C   0  0  0  0  0  2  0  0  0  0  0  0
    4.2690  -57.9670   -8.0810 C   0  0  0  0  0  1  0  0  0  0  0  0
   -0.8710  -57.5020   -7.7100 Cl  0  0  0  0  0  0  0  0  0  0  0  0
    3.8690  -59.0790   -7.1810 N   0  0  0  0  0  0  0  0  0  0  0  0
    2.7820  -62.1070   -4.7230 N   0  0  0  0  0  1  0  0  0  0  0  0
  1  2  1  0
  1 13  1  0
  2  3  1  0
  3  4  1  0
  4 12  1  0
  4 16  1  0
  5  6  1  0
  5 10  1  0
  5 16  1  0
  6  7  1  0
  7  8  1  0
  7 15  1  0
  8  9  1  0
  9 10  1  0
 10 11  1  0
 11 12  1  0
 11 17  1  0
 12 13  1  0
 14 16  1  0
M  END
$$$$
