6g1u_A_E1K_608
     RDKit          3D

 17 19  0  0  0  0  0  0  0  0999 V2000
   -0.2390   -3.2830   18.9040 C   0  0  0  0  0  2  0  0  0  0  0  0
   -0.7140   -4.6220   19.3340 C   0  0  0  0  0  2  0  0  0  0  0  0
   -0.0470   -4.9070   20.6440 C   0  0  0  0  0  2  0  0  0  0  0  0
    1.3350   -4.9440   20.4510 C   0  0  0  0  0  3  0  0  0  0  0  0
    3.3980   -5.8940   21.1160 C   0  0  0  0  0  3  0  0  0  0  0  0
    4.0940   -6.7790   21.9400 C   0  0  0  0  0  2  0  0  0  0  0  0
    5.4750   -6.8900   21.8190 C   0  0  0  0  0  3  0  0  0  0  0  0
    6.1550   -6.1240   20.8770 C   0  0  0  0  0  2  0  0  0  0  0  0
    5.4620   -5.2420   20.0560 C   0  0  0  0  0  2  0  0  0  0  0  0
    4.0830   -5.1350   20.1830 C   0  0  0  0  0  3  0  0  0  0  0  0
    3.3480   -4.2750   19.3850 C   0  0  0  0  0  3  0  0  0  0  0  0
    1.9650   -4.1580   19.5000 C   0  0  0  0  0  3  0  0  0  0  0  0
    1.2600   -3.2930   18.6790 C   0  0  0  0  0  2  0  0  0  0  0  0
    1.3410   -6.5560   22.1860 C   0  0  0  0  0  1  0  0  0  0  0  0
    6.3670   -7.9770   22.8400 Cl  0  0  0  0  0  0  0  0  0  0  0  0
    2.0650   -5.7700   21.2090 N   0  0  0  0  0  0  0  0  0  0  0  0
    4.0030   -3.5380   18.4910 N   0  0  0  0  0  1  0  0  0  0  0  0
  1  2  1  0
  1 13  1  0
  2  3  1  0
  3  4  1  0
  4 12  1  0
  4 16  1  0
  5  6  1  0
  5 10  1  0
  5 16  1  0
  6  7  1  0
  7  8  1  0
  7 15  1  0
  8  9  1  0
  9 10  1  0
 10 11  1  0
 11 12  1  0
 11 17  1  0
 12 13  1  0
 14 16  1  0
M  END
$$$$
