6g4n_B_E2W_603
     RDKit          3D

 30 33  0  0  0  0  0  0  0  0999 V2000
    9.4490    2.9710   -3.9260 C   0  0  0  0  0  2  0  0  0  0  0  0
   12.7040    1.3750   -3.1390 C   0  0  0  0  0  2  0  0  0  0  0  0
   13.7130    7.4770   -5.8060 C   0  0  0  0  0  2  0  0  0  0  0  0
   14.3520    8.5410   -4.9290 C   0  0  0  0  0  2  0  0  0  0  0  0
   13.4180    9.0910   -3.9040 C   0  0  0  0  0  2  0  0  0  0  0  0
   12.8030    7.9520   -3.0980 C   0  0  0  0  0  2  0  0  0  0  0  0
   13.9380    4.6140   -7.7720 C   0  0  0  0  0  2  0  0  0  0  0  0
   14.1960    3.0630   -7.8570 C   0  0  0  0  0  2  0  0  0  0  0  0
   15.3470    2.5930   -6.9740 C   0  0  0  0  0  2  0  0  0  0  0  0
   15.8520    3.6220   -5.9620 C   0  0  0  0  0  2  0  0  0  0  0  0
   15.1840    3.5800   -4.6430 C   0  0  0  0  0  3  0  0  0  0  0  0
    9.8820    2.6760   -5.2140 C   0  0  0  0  0  3  0  0  0  0  0  0
   15.4650    4.5330   -3.6520 C   0  0  0  0  0  2  0  0  0  0  0  0
   14.8110    4.4450   -2.4270 C   0  0  0  0  0  2  0  0  0  0  0  0
   13.9050    3.4170   -2.2380 C   0  0  0  0  0  3  0  0  0  0  0  0
   13.6710    2.4890   -3.2840 C   0  0  0  0  0  3  0  0  0  0  0  0
   10.7990    3.4450   -5.8720 C   0  0  0  0  0  2  0  0  0  0  0  0
   11.3210    4.5770   -5.2380 C   0  0  0  0  0  3  0  0  0  0  0  0
   10.9050    4.9140   -3.9460 C   0  0  0  0  0  3  0  0  0  0  0  0
    9.9510    4.0740   -3.2950 C   0  0  0  0  0  2  0  0  0  0  0  0
   12.2720    5.3950   -5.8910 C   0  0  0  0  0  3  0  0  0  0  0  0
   12.7260    6.5270   -5.2110 C   0  0  0  0  0  3  0  0  0  0  0  0
   12.1780    6.8510   -3.9170 C   0  0  0  0  0  3  0  0  0  0  0  0
    9.2480    1.3080   -5.9930 Cl  0  0  0  0  0  0  0  0  0  0  0  0
   11.3830    6.0180   -3.2660 N   0  0  0  0  0  2  0  0  0  0  0  0
   12.6170    5.0380   -7.2190 N   0  0  0  0  0  2  0  0  0  0  0  0
   14.3040    2.5850   -4.4590 N   0  0  0  0  0  2  0  0  0  0  0  0
   11.7980    1.0300   -2.2610 N   0  0  0  0  0  2  0  0  0  0  0  0
   11.6330    1.7650   -1.1670 O   0  0  0  0  0  1  0  0  0  0  0  0
   13.2210    3.2570   -1.0790 O   0  0  0  0  0  1  0  0  0  0  0  0
  1 12  1  0
  1 20  1  0
  2 16  1  0
  2 28  1  0
  3  4  1  0
  3 22  1  0
  4  5  1  0
  5  6  1  0
  6 23  1  0
  7  8  1  0
  7 26  1  0
  8  9  1  0
  9 10  1  0
 10 11  1  0
 11 13  1  0
 11 27  1  0
 12 17  1  0
 12 24  1  0
 13 14  1  0
 14 15  1  0
 15 16  1  0
 15 30  1  0
 16 27  1  0
 17 18  1  0
 18 19  1  0
 18 21  1  0
 19 20  1  0
 19 25  1  0
 21 22  1  0
 21 26  1  0
 22 23  1  0
 23 25  1  0
 28 29  1  0
M  END
$$$$
