6g4p_B_JDS_604
     RDKit          3D

 30 33  0  0  0  0  0  0  0  0999 V2000
    8.7300    2.9330   -5.3900 C   0  0  0  0  0  3  0  0  0  0  0  0
    7.7960    1.7730   -5.0290 C   0  0  0  0  0  2  0  0  0  0  0  0
    7.5850    0.7150   -6.1090 C   0  0  0  0  0  2  0  0  0  0  0  0
    8.9020    0.3970   -6.7730 C   0  0  0  0  0  2  0  0  0  0  0  0
    9.4190    1.6620   -7.4340 C   0  0  0  0  0  2  0  0  0  0  0  0
    9.6220    2.8210   -6.5340 C   0  0  0  0  0  3  0  0  0  0  0  0
    9.9040    4.8020   -4.6500 C   0  0  0  0  0  3  0  0  0  0  0  0
   10.7580    4.8120   -5.7590 C   0  0  0  0  0  3  0  0  0  0  0  0
   10.6450    3.7630   -6.7320 C   0  0  0  0  0  3  0  0  0  0  0  0
   10.0300    5.8570   -3.7020 C   0  0  0  0  0  2  0  0  0  0  0  0
   10.9430    6.8450   -3.8230 C   0  0  0  0  0  2  0  0  0  0  0  0
   11.7800    6.8380   -4.9150 C   0  0  0  0  0  3  0  0  0  0  0  0
   11.7150    5.8510   -5.8850 C   0  0  0  0  0  2  0  0  0  0  0  0
   12.4390    3.3330   -8.6000 C   0  0  0  0  0  2  0  0  0  0  0  0
   13.8190    3.8320   -8.2120 C   0  0  0  0  0  2  0  0  0  0  0  0
   14.7660    2.6600   -7.8230 C   0  0  0  0  0  2  0  0  0  0  0  0
   14.3830    1.7700   -6.6240 C   0  0  0  0  0  2  0  0  0  0  0  0
   13.8620    2.4840   -5.3990 C   0  0  0  0  0  3  0  0  0  0  0  0
   14.4990    3.6710   -4.9920 C   0  0  0  0  0  2  0  0  0  0  0  0
   14.0530    4.3650   -3.8840 C   0  0  0  0  0  2  0  0  0  0  0  0
   12.9720    3.8570   -3.1970 C   0  0  0  0  0  3  0  0  0  0  0  0
   12.3540    2.6650   -3.6420 C   0  0  0  0  0  3  0  0  0  0  0  0
   11.2280    2.1420   -2.8890 C   0  0  0  0  0  2  0  0  0  0  0  0
   12.9050    8.1120   -5.0450 Cl  0  0  0  0  0  0  0  0  0  0  0  0
    8.9270    3.8400   -4.4310 N   0  0  0  0  0  2  0  0  0  0  0  0
   11.2650    4.0060   -7.9880 N   0  0  0  0  0  2  0  0  0  0  0  0
   12.7880    1.9820   -4.7210 N   0  0  0  0  0  2  0  0  0  0  0  0
   10.6170    1.0150   -3.0140 N   0  0  0  0  0  2  0  0  0  0  0  0
    9.6270    0.7770   -2.1610 O   0  0  0  0  0  1  0  0  0  0  0  0
   12.4620    4.4620   -2.0910 O   0  0  0  0  0  1  0  0  0  0  0  0
  1  2  1  0
  1  6  1  0
  1 25  1  0
  2  3  1  0
  3  4  1  0
  4  5  1  0
  5  6  1  0
  6  9  1  0
  7  8  1  0
  7 10  1  0
  7 25  1  0
  8  9  1  0
  8 13  1  0
  9 26  1  0
 10 11  1  0
 11 12  1  0
 12 13  1  0
 12 24  1  0
 14 15  1  0
 14 26  1  0
 15 16  1  0
 16 17  1  0
 17 18  1  0
 18 19  1  0
 18 27  1  0
 19 20  1  0
 20 21  1  0
 21 22  1  0
 21 30  1  0
 22 23  1  0
 22 27  1  0
 23 28  1  0
 28 29  1  0
M  END
$$$$
