6h12_B_FJK_619
     RDKit          3D

 49 56  0  0  0  0  0  0  0  0999 V2000
   86.4240  270.9670   96.8010 C   0  0  0  0  0  2  0  0  0  0  0  0
   91.9170  267.3030   95.3710 C   0  0  0  0  0  2  0  0  0  0  0  0
   85.6330  270.1520   95.9910 C   0  0  0  0  0  2  0  0  0  0  0  0
   91.4220  266.9910   94.3370 C   0  0  0  0  0  2  0  0  0  0  0  0
   80.2560  253.7500  102.3190 C   0  0  0  0  0  2  0  0  0  0  0  0
   81.4080  258.8380   96.4910 C   0  0  0  0  0  2  0  0  0  0  0  0
   81.2920  254.5400  101.8510 C   0  0  0  0  0  2  0  0  0  0  0  0
   79.1580  254.3590  102.9210 C   0  0  0  0  0  2  0  0  0  0  0  0
   82.0990  260.0180   96.2380 C   0  0  0  0  0  2  0  0  0  0  0  0
   87.7950  270.7210   96.9100 C   0  0  0  0  0  2  0  0  0  0  0  0
   91.5150  268.3040   95.8540 C   0  0  0  0  0  2  0  0  0  0  0  0
   86.2590  269.1120   95.3030 C   0  0  0  0  0  2  0  0  0  0  0  0
   90.2780  266.7790   94.3960 C   0  0  0  0  0  2  0  0  0  0  0  0
   83.1500  259.8180   98.3910 C   0  0  0  0  0  2  0  0  0  0  0  0
   85.4540  264.0000   96.2180 C   0  0  0  0  0  2  0  0  0  0  0  0
   78.2020  258.9510  101.2620 C   0  0  0  0  0  2  0  0  0  0  0  0
   77.2420  259.4870  102.3530 C   0  0  0  0  0  2  0  0  0  0  0  0
   86.3970  266.2640   94.1680 C   0  0  0  0  0  2  0  0  0  0  0  0
   79.6370  258.8910  101.8070 C   0  0  0  0  0  2  0  0  0  0  0  0
   77.6200  258.9140  103.7450 C   0  0  0  0  0  2  0  0  0  0  0  0
   86.4840  264.7540   94.1120 C   0  0  0  0  0  2  0  0  0  0  0  0
   83.6840  261.6750   97.0120 C   0  0  0  0  0  2  0  0  0  0  0  0
   85.0500  263.0530   98.5840 C   0  0  0  0  0  2  0  0  0  0  0  0
   81.8420  257.1930  100.3500 C   0  0  0  0  0  3  0  0  0  0  0  0
   78.1150  256.4250  103.6050 C   0  0  0  0  0  3  0  0  0  0  0  0
   82.9720  260.5040   97.2040 C   0  0  0  0  0  3  0  0  0  0  0  0
   85.9030  263.4910   97.3660 C   0  0  0  0  0  3  0  0  0  0  0  0
   82.4720  258.6340   98.6330 C   0  0  0  0  0  3  0  0  0  0  0  0
   81.1590  255.9070  102.0280 C   0  0  0  0  0  3  0  0  0  0  0  0
   79.0940  255.6770  103.0900 C   0  0  0  0  0  3  0  0  0  0  0  0
   88.3190  267.7820   94.7570 C   0  0  0  0  0  3  0  0  0  0  0  0
   80.0670  256.4730  102.5970 C   0  0  0  0  0  3  0  0  0  0  0  0
   88.4020  269.6640   96.2310 C   0  0  0  0  0  3  0  0  0  0  0  0
   90.3730  268.4560   95.7350 C   0  0  0  0  0  3  0  0  0  0  0  0
   87.6340  268.8350   95.4080 C   0  0  0  0  0  3  0  0  0  0  0  0
   89.6950  267.6180   94.9180 C   0  0  0  0  0  3  0  0  0  0  0  0
   79.7190  257.8220  102.9240 C   0  0  0  0  0  3  0  0  0  0  0  0
   81.6080  258.1600   97.7090 N   0  0  0  0  0  2  0  0  0  0  0  0
   87.2380  263.4310   97.3170 N   0  0  0  0  0  2  0  0  0  0  0  0
   87.5920  263.8650   96.1860 N   0  0  0  0  0  2  0  0  0  0  0  0
   89.7280  269.4590   96.3620 N   0  0  0  0  0  2  0  0  0  0  0  0
   87.7120  266.9090   93.9320 N   0  0  0  0  0  2  0  0  0  0  0  0
   82.7110  258.0750   99.8280 N   0  0  0  0  0  2  0  0  0  0  0  0
   82.0900  256.7340  101.5830 N   0  0  0  0  0  2  0  0  0  0  0  0
   78.3970  257.7120  103.5040 N   0  0  0  0  0  0  0  0  0  0  0  0
   86.5370  264.2120   95.4850 N   0  0  0  0  0  0  0  0  0  0  0  0
   80.8180  256.8340   99.7640 O   0  0  0  0  0  1  0  0  0  0  0  0
   77.0360  255.9900  104.0090 O   0  0  0  0  0  1  0  0  0  0  0  0
   83.7670  262.4690   98.2260 O   0  0  0  0  0  0  0  0  0  0  0  0
  1  3  1  0
  1 10  1  0
  2  4  1  0
  2 11  1  0
  3 12  1  0
  4 13  1  0
  5  7  1  0
  5  8  1  0
  6  9  1  0
  6 38  1  0
  7 29  1  0
  8 30  1  0
  9 26  1  0
 10 33  1  0
 11 34  1  0
 12 35  1  0
 13 36  1  0
 14 26  1  0
 14 28  1  0
 15 27  1  0
 15 46  1  0
 16 17  1  0
 16 19  1  0
 17 20  1  0
 18 21  1  0
 18 42  1  0
 19 37  1  0
 20 45  1  0
 21 46  1  0
 22 26  1  0
 22 49  1  0
 23 27  1  0
 23 49  1  0
 24 43  1  0
 24 44  1  0
 24 47  1  0
 25 30  1  0
 25 45  1  0
 25 48  1  0
 27 39  1  0
 28 38  1  0
 28 43  1  0
 29 32  1  0
 29 44  1  0
 30 32  1  0
 31 35  1  0
 31 36  1  0
 31 42  1  0
 32 37  1  0
 33 35  1  0
 33 41  1  0
 34 36  1  0
 34 41  1  0
 37 45  1  0
 39 40  1  0
 40 46  1  0
M  END
$$$$
