7ais_B_8UH_601
     RDKit          3D

 38 42  0  0  0  0  0  0  0  0999 V2000
   87.1820 -115.1640   80.0890 C   0  0  0  0  0  2  0  0  0  0  0  0
   85.8370 -115.3970   80.1730 C   0  0  0  0  0  3  0  0  0  0  0  0
   85.1050 -114.6970   81.0910 C   0  0  0  0  0  2  0  0  0  0  0  0
   85.6970 -113.7510   81.8930 C   0  0  0  0  0  2  0  0  0  0  0  0
   87.0460 -113.4970   81.8150 C   0  0  0  0  0  3  0  0  0  0  0  0
   87.7970 -114.2190   80.8940 C   0  0  0  0  0  3  0  0  0  0  0  0
   89.7590 -113.1290   81.4660 C   0  0  0  0  0  3  0  0  0  0  0  0
   89.0680 -112.3810   82.4430 C   0  0  0  0  0  3  0  0  0  0  0  0
   87.7190 -112.5480   82.5900 C   0  0  0  0  0  3  0  0  0  0  0  0
   89.8290 -111.3890   83.1860 C   0  0  0  0  0  3  0  0  0  0  0  0
   91.4100 -111.6370   83.2090 C   0  0  0  0  0  2  0  0  0  0  0  0
   91.6590 -111.6900   81.7760 C   0  0  0  0  0  3  0  0  0  0  0  0
   91.1880 -112.9920   81.2570 C   0  0  0  0  0  2  0  0  0  0  0  0
   89.5470 -110.0080   82.5070 C   0  0  0  0  0  2  0  0  0  0  0  0
   90.4380 -109.7460   81.3710 C   0  0  0  0  0  3  0  0  0  0  0  0
   90.2430 -108.6090   80.6280 C   0  0  0  0  0  1  0  0  0  0  0  0
   85.7960 -111.8340   83.9980 C   0  0  0  0  0  2  0  0  0  0  0  0
   84.8710 -110.9960   83.1570 C   0  0  0  0  0  2  0  0  0  0  0  0
   85.1380 -109.5370   83.3200 C   0  0  0  0  0  2  0  0  0  0  0  0
   83.2390 -106.9270   81.6470 C   0  0  0  0  0  3  0  0  0  0  0  0
   82.1020 -106.4540   79.5560 C   0  0  0  0  0  2  0  0  0  0  0  0
   81.3760 -105.4190   79.9740 C   0  0  0  0  0  3  0  0  0  0  0  0
   80.1660 -105.2650   79.3530 C   0  0  0  0  0  2  0  0  0  0  0  0
   79.3780 -104.2000   79.7020 C   0  0  0  0  0  3  0  0  0  0  0  0
   79.8410 -103.3070   80.6610 C   0  0  0  0  0  3  0  0  0  0  0  0
   81.0620 -103.4720   81.2560 C   0  0  0  0  0  2  0  0  0  0  0  0
   81.8430 -104.5370   80.9110 C   0  0  0  0  0  2  0  0  0  0  0  0
   78.0150 -104.3020   77.7760 C   0  0  0  0  0  1  0  0  0  0  0  0
   84.4810 -107.3560   82.2730 C   0  0  0  0  0  2  0  0  0  0  0  0
   84.0790 -108.8160   82.5620 C   0  0  0  0  0  2  0  0  0  0  0  0
   91.5260 -110.5960   81.0520 C   0  0  0  0  0  2  0  0  0  0  0  0
   85.0500 -116.5660   79.1350 Cl  0  0  0  0  0  0  0  0  0  0  0  0
   89.0930 -114.0080   80.7550 N   0  0  0  0  0  2  0  0  0  0  0  0
   87.1510 -111.7830   83.4850 N   0  0  0  0  0  2  0  0  0  0  0  0
   83.2860 -106.7760   80.3590 N   0  0  0  0  0  2  0  0  0  0  0  0
   82.2400 -106.8400   82.2850 O   0  0  0  0  0  1  0  0  0  0  0  0
   79.0920 -102.2680   81.0020 O   0  0  0  0  0  1  0  0  0  0  0  0
   78.1580 -103.9760   79.1590 O   0  0  0  0  0  0  0  0  0  0  0  0
  1  2  1  0
  1  6  1  0
  2  3  1  0
  2 32  1  0
  3  4  1  0
  4  5  1  0
  5  6  1  0
  5  9  1  0
  6 33  1  0
  7  8  1  0
  7 13  1  0
  7 33  1  0
  8  9  1  0
  8 10  1  0
  9 34  1  0
 10 11  1  0
 10 14  1  0
 11 12  1  0
 12 13  1  0
 12 31  1  0
 14 15  1  0
 15 16  1  0
 15 31  1  0
 17 18  1  0
 17 34  1  0
 18 19  1  0
 19 30  1  0
 20 29  1  0
 20 35  1  0
 20 36  1  0
 21 22  1  0
 21 35  1  0
 22 23  1  0
 22 27  1  0
 23 24  1  0
 24 25  1  0
 24 38  1  0
 25 26  1  0
 25 37  1  0
 26 27  1  0
 28 38  1  0
 29 30  1  0
M  END
$$$$
