7b8e_A_FWN_605
     RDKit          3D

 12 11  0  0  0  0  0  0  0  0999 V2000
   53.5210    5.2980   16.7130 C   0  0  0  0  0  1  0  0  0  0  0  0
   50.0160    7.4970   18.9760 C   0  0  0  0  0  2  0  0  0  0  0  0
   50.6510    7.3970   17.6240 C   0  0  0  0  0  2  0  0  0  0  0  0
   52.5080    6.3570   16.5520 C   0  0  0  0  0  2  0  0  0  0  0  0
   44.9270   10.6290   18.9720 C   0  0  0  0  0  2  0  0  0  0  0  0
   45.1190    9.7550   20.1780 C   0  0  0  0  0  2  0  0  0  0  0  0
   47.4970    9.8350   20.2970 C   0  0  0  0  0  2  0  0  0  0  0  0
   48.7220    8.9690   20.2940 C   0  0  0  0  0  2  0  0  0  0  0  0
   48.9650    8.4540   18.9870 O   0  0  0  0  0  0  0  0  0  0  0  0
   51.6490    6.3820   17.6850 O   0  0  0  0  0  0  0  0  0  0  0  0
   43.7690   11.4370   19.0770 O   0  0  0  0  0  1  0  0  0  0  0  0
   46.3420    9.0280   20.0830 O   0  0  0  0  0  0  0  0  0  0  0  0
  1  4  1  0
  2  3  1  0
  2  9  1  0
  3 10  1  0
  4 10  1  0
  5  6  1  0
  5 11  1  0
  6 12  1  0
  7  8  1  0
  7 12  1  0
  8  9  1  0
M  END
$$$$
