3ob7_A_GSH_581
     RDKit          3D

 20 19  0  0  0  0  0  0  0  0999 V2000
   20.1560   -4.5400  104.5650 C   0  0  0  0  0  3  0  0  0  0  0  0
   24.9170   -8.5520   99.6920 C   0  0  0  0  0  3  0  0  0  0  0  0
   25.3080  -10.0550   96.2520 C   0  0  0  0  0  3  0  0  0  0  0  0
   21.0320   -5.7010  104.3610 C   0  0  0  0  0  3  0  0  0  0  0  0
   25.7460   -7.8590  100.7890 C   0  0  0  0  0  3  0  0  0  0  0  0
   24.5530   -9.6500   97.4880 C   0  0  0  0  0  2  0  0  0  0  0  0
   22.1390   -5.3800  103.3520 C   0  0  0  0  0  2  0  0  0  0  0  0
   26.8050   -8.8450  101.3330 C   0  0  0  0  0  2  0  0  0  0  0  0
   24.0640   -6.5000  102.0740 C   0  0  0  0  0  3  0  0  0  0  0  0
   22.9890   -6.6420  103.1500 C   0  0  0  0  0  2  0  0  0  0  0  0
   20.1680   -6.7480  103.8100 N   0  0  0  0  0  1  0  0  0  0  0  0
   24.7330   -7.6430  101.8540 N   0  0  0  0  0  2  0  0  0  0  0  0
   25.4030   -8.9730   98.5050 N   0  0  0  0  0  2  0  0  0  0  0  0
   19.8380   -4.2330  105.6620 O   0  0  0  0  0  1  0  0  0  0  0  0
   19.7040   -3.8990  103.5080 O   0  0  0  0  0  1  0  0  0  0  0  0
   23.7330   -8.7520   99.9070 O   0  0  0  0  0  1  0  0  0  0  0  0
   26.5290   -9.8060   96.1780 O   0  0  0  0  0  1  0  0  0  0  0  0
   24.6730  -10.6370   95.3390 O   0  0  0  0  0  1  0  0  0  0  0  0
   24.2300   -5.4540  101.4380 O   0  0  0  0  0  1  0  0  0  0  0  0
   27.8490   -8.0990  102.6280 S   0  0  0  0  0  1  0  0  0  0  0  0
  1  4  1  0
  1 14  1  0
  1 15  1  0
  2  5  1  0
  2 13  1  0
  2 16  1  0
  3  6  1  0
  3 17  1  0
  3 18  1  0
  4  7  1  0
  4 11  1  0
  5  8  1  0
  5 12  1  0
  6 13  1  0
  7 10  1  0
  8 20  1  0
  9 10  1  0
  9 12  1  0
  9 19  1  0
M  END
$$$$
