3ob7_D_GSH_314
     RDKit          3D

 20 19  0  0  0  0  0  0  0  0999 V2000
   20.1250  -19.2630   61.5170 C   0  0  0  0  0  3  0  0  0  0  0  0
   19.8450  -12.5080   56.7580 C   0  0  0  0  0  3  0  0  0  0  0  0
   21.3620  -11.0590   53.7770 C   0  0  0  0  0  3  0  0  0  0  0  0
   20.1920  -18.3840   60.4030 C   0  0  0  0  0  3  0  0  0  0  0  0
   20.3410  -13.8570   56.9160 C   0  0  0  0  0  3  0  0  0  0  0  0
   20.4080  -10.7870   54.9220 C   0  0  0  0  0  2  0  0  0  0  0  0
   19.6320  -17.0080   60.7230 C   0  0  0  0  0  2  0  0  0  0  0  0
   20.0030  -14.5950   55.6370 C   0  0  0  0  0  2  0  0  0  0  0  0
   19.6250  -14.9420   59.1330 C   0  0  0  0  0  3  0  0  0  0  0  0
   19.9310  -16.3610   59.4320 C   0  0  0  0  0  2  0  0  0  0  0  0
   19.3930  -18.9980   59.3580 N   0  0  0  0  0  1  0  0  0  0  0  0
   20.1170  -14.8230   57.9460 N   0  0  0  0  0  2  0  0  0  0  0  0
   20.4070  -12.0000   55.6580 N   0  0  0  0  0  2  0  0  0  0  0  0
   19.0550  -19.6720   61.8900 O   0  0  0  0  0  1  0  0  0  0  0  0
   21.2800  -19.5900   62.0650 O   0  0  0  0  0  1  0  0  0  0  0  0
   19.0760  -11.9410   57.5040 O   0  0  0  0  0  1  0  0  0  0  0  0
   21.9080  -12.1930   53.7130 O   0  0  0  0  0  1  0  0  0  0  0  0
   21.5770  -10.1620   52.9410 O   0  0  0  0  0  1  0  0  0  0  0  0
   19.0930  -14.1310   59.8730 O   0  0  0  0  0  1  0  0  0  0  0  0
   20.5280  -16.2920   55.7870 S   0  0  0  0  0  1  0  0  0  0  0  0
  1  4  1  0
  1 14  1  0
  1 15  1  0
  2  5  1  0
  2 13  1  0
  2 16  1  0
  3  6  1  0
  3 17  1  0
  3 18  1  0
  4  7  1  0
  4 11  1  0
  5  8  1  0
  5 12  1  0
  6 13  1  0
  7 10  1  0
  8 20  1  0
  9 10  1  0
  9 12  1  0
  9 19  1  0
M  END
$$$$
