5hs3_E_KI3_401
     RDKit          3D

 32 34  0  0  0  0  0  0  0  0999 V2000
   43.2840   38.6580   74.8590 C   0  0  0  0  0  3  0  0  0  0  0  0
   43.5950   38.3940   76.1880 C   0  0  0  0  0  3  0  0  0  0  0  0
   42.8000   38.9140   77.1900 C   0  0  0  0  0  3  0  0  0  0  0  0
   43.2110   38.5700   78.6030 C   0  0  0  0  0  0  0  0  0  0  0  0
   41.6700   39.7210   76.8270 C   0  0  0  0  0  3  0  0  0  0  0  0
   41.4040   39.9530   75.4880 C   0  0  0  0  0  3  0  0  0  0  0  0
   39.7470   41.0680   77.1270 C   0  0  0  0  0  3  0  0  0  0  0  0
   40.7500   40.3390   77.7200 C   0  0  0  0  0  3  0  0  0  0  0  0
   38.6610   41.8020   77.8770 C   0  0  0  0  0  3  0  0  0  0  0  0
   37.4850   42.3130   77.1070 C   0  0  0  0  0  3  0  0  0  0  0  0
   37.6770   43.1100   75.9970 C   0  0  0  0  0  3  0  0  0  0  0  0
   36.5770   43.5720   75.2980 C   0  0  0  0  0  3  0  0  0  0  0  0
   35.2960   43.2310   75.7130 C   0  0  0  0  0  3  0  0  0  0  0  0
   35.1170   42.4300   76.8290 C   0  0  0  0  0  3  0  0  0  0  0  0
   36.2180   41.9700   77.5270 C   0  0  0  0  0  3  0  0  0  0  0  0
   44.4480   37.3510   74.1250 H   0  0  0  0  0  0  0  0  0  0  0  0
   44.3660   37.8400   76.4110 H   0  0  0  0  0  0  0  0  0  0  0  0
   43.1610   37.5990   78.7300 H   0  0  0  0  0  0  0  0  0  0  0  0
   44.1310   38.8720   78.7580 H   0  0  0  0  0  0  0  0  0  0  0  0
   42.6100   39.0140   79.2360 H   0  0  0  0  0  0  0  0  0  0  0  0
   40.1330   39.8190   79.5870 H   0  0  0  0  0  0  0  0  0  0  0  0
   41.4770   40.6550   79.5960 H   0  0  0  0  0  0  0  0  0  0  0  0
   38.5800   43.3470   75.7090 H   0  0  0  0  0  0  0  0  0  0  0  0
   36.7010   44.1370   74.5100 H   0  0  0  0  0  0  0  0  0  0  0  0
   34.5190   43.5580   75.2190 H   0  0  0  0  0  0  0  0  0  0  0  0
   34.2160   42.1910   77.1220 H   0  0  0  0  0  0  0  0  0  0  0  0
   36.0980   41.4040   78.3140 H   0  0  0  0  0  0  0  0  0  0  0  0
   42.2120   39.4180   74.5300 N   0  0  0  0  0  2  0  0  0  0  0  0
   40.7910   40.2610   79.1360 N   0  0  0  0  0  0  0  0  0  0  0  0
   44.1000   38.1210   73.8480 O   0  0  0  0  0  0  0  0  0  0  0  0
   38.7120   41.9700   79.0830 O   0  0  0  0  0  1  0  0  0  0  0  0
   39.9770   40.9600   75.4160 S   0  0  0  0  0  0  0  0  0  0  0  0
  1  2  1  0
  1 28  1  0
  1 30  1  0
  2  3  1  0
  2 17  1  0
  3  4  1  0
  3  5  1  0
  4 18  1  0
  4 19  1  0
  4 20  1  0
  5  6  1  0
  5  8  1  0
  6 28  1  0
  6 32  1  0
  7  8  1  0
  7  9  1  0
  7 32  1  0
  8 29  1  0
  9 10  1  0
  9 31  1  0
 10 11  1  0
 10 15  1  0
 11 12  1  0
 11 23  1  0
 12 13  1  0
 12 24  1  0
 13 14  1  0
 13 25  1  0
 14 15  1  0
 14 26  1  0
 15 27  1  0
 16 30  1  0
 21 29  1  0
 22 29  1  0
M  END
$$$$
