5wrn_C_DCM_400
     RDKit          3D

 20 21  0  0  0  0  0  0  0  0999 V2000
   17.9040  -15.0560  -48.2140 C   0  0  0  0  0  3  0  0  0  0  0  0
   17.1360  -17.3590  -47.6580 C   0  0  0  0  0  3  0  0  0  0  0  0
   19.5030  -15.2210  -47.8250 C   0  0  0  0  0  2  0  0  0  0  0  0
   19.9970  -14.0300  -48.0650 C   0  0  0  0  0  3  0  0  0  0  0  0
   15.9160  -18.5780  -49.2510 C   0  0  0  0  0  3  0  0  0  0  0  0
   19.2770  -13.5500  -49.3590 C   0  0  0  0  0  3  0  0  0  0  0  0
   16.0090  -17.5410  -50.1680 C   0  0  0  0  0  2  0  0  0  0  0  0
   19.9350  -13.9590  -50.5180 C   0  0  0  0  0  2  0  0  0  0  0  0
   16.6880  -16.3880  -49.7880 C   0  0  0  0  0  2  0  0  0  0  0  0
   17.2670  -16.2890  -48.5480 N   0  0  0  0  0  0  0  0  0  0  0  0
   16.4720  -18.4910  -48.0250 N   0  0  0  0  0  2  0  0  0  0  0  0
   15.2440  -19.7240  -49.6570 N   0  0  0  0  0  1  0  0  0  0  0  0
   22.2550  -14.2870  -52.5440 O   0  0  0  0  0  1  0  0  0  0  0  0
   17.5880  -17.3650  -46.5150 O   0  0  0  0  0  1  0  0  0  0  0  0
   23.3790  -12.3810  -51.3700 O   0  0  0  0  0  1  0  0  0  0  0  0
   19.6780  -13.0880  -46.9750 O   0  0  0  0  0  1  0  0  0  0  0  0
   23.1550  -14.5290  -50.2550 O   0  0  0  0  0  1  0  0  0  0  0  0
   17.8310  -14.1390  -49.1700 O   0  0  0  0  0  0  0  0  0  0  0  0
   21.0790  -13.1180  -50.6390 O   0  0  0  0  0  0  0  0  0  0  0  0
   22.4780  -13.5850  -51.2390 P   0  0  0  0  0  4  0  0  0  0  0  0
  1  3  1  0
  1 10  1  0
  1 18  1  0
  2 10  1  0
  2 11  1  0
  2 14  1  0
  3  4  1  0
  4  6  1  0
  4 16  1  0
  5  7  1  0
  5 11  1  0
  5 12  1  0
  6  8  1  0
  6 18  1  0
  7  9  1  0
  8 19  1  0
  9 10  1  0
 13 20  1  0
 15 20  1  0
 17 20  1  0
 19 20  1  0
M  END
$$$$
