5wrn_F_DCM_400
     RDKit          3D

 20 21  0  0  0  0  0  0  0  0999 V2000
  -37.4620  -40.7050  -80.8180 C   0  0  0  0  0  3  0  0  0  0  0  0
  -38.2220  -38.3920  -81.1160 C   0  0  0  0  0  3  0  0  0  0  0  0
  -35.8340  -40.6010  -81.1270 C   0  0  0  0  0  2  0  0  0  0  0  0
  -35.3930  -41.8220  -80.9020 C   0  0  0  0  0  3  0  0  0  0  0  0
  -39.1290  -37.2220  -79.2730 C   0  0  0  0  0  3  0  0  0  0  0  0
  -36.2060  -42.3280  -79.6740 C   0  0  0  0  0  3  0  0  0  0  0  0
  -38.9420  -38.3070  -78.4260 C   0  0  0  0  0  2  0  0  0  0  0  0
  -35.6560  -41.9710  -78.4480 C   0  0  0  0  0  2  0  0  0  0  0  0
  -38.3740  -39.4450  -78.9780 C   0  0  0  0  0  2  0  0  0  0  0  0
  -38.0120  -39.4950  -80.3050 N   0  0  0  0  0  0  0  0  0  0  0  0
  -38.7750  -37.2740  -80.5790 N   0  0  0  0  0  2  0  0  0  0  0  0
  -39.6810  -36.0430  -78.7490 N   0  0  0  0  0  1  0  0  0  0  0  0
  -32.4810  -41.3590  -78.5060 O   0  0  0  0  0  1  0  0  0  0  0  0
  -37.9290  -38.3510  -82.3200 O   0  0  0  0  0  1  0  0  0  0  0  0
  -32.2100  -43.5470  -77.4870 O   0  0  0  0  0  1  0  0  0  0  0  0
  -35.7070  -42.7360  -82.0330 O   0  0  0  0  0  1  0  0  0  0  0  0
  -33.3990  -41.7330  -76.2390 O   0  0  0  0  0  1  0  0  0  0  0  0
  -37.6280  -41.7140  -79.9910 O   0  0  0  0  0  0  0  0  0  0  0  0
  -34.5340  -42.8180  -78.2510 O   0  0  0  0  0  0  0  0  0  0  0  0
  -33.1540  -42.3540  -77.6060 P   0  0  0  0  0  4  0  0  0  0  0  0
  1  3  1  0
  1 10  1  0
  1 18  1  0
  2 10  1  0
  2 11  1  0
  2 14  1  0
  3  4  1  0
  4  6  1  0
  4 16  1  0
  5  7  1  0
  5 11  1  0
  5 12  1  0
  6  8  1  0
  6 18  1  0
  7  9  1  0
  8 19  1  0
  9 10  1  0
 13 20  1  0
 15 20  1  0
 17 20  1  0
 19 20  1  0
M  END
$$$$
