5x5q_E_D16_402
     RDKit          3D

 32 34  0  0  0  0  0  0  0  0999 V2000
   93.6380    7.1030   -1.8270 C   0  0  0  0  0  3  0  0  0  0  0  0
   93.1560    8.2730   -0.9570 C   0  0  0  0  0  3  0  0  0  0  0  0
   92.2480   10.2190    0.4370 C   0  0  0  0  0  3  0  0  0  0  0  0
   93.5730    9.9190    0.6430 C   0  0  0  0  0  2  0  0  0  0  0  0
   94.0380    8.8830   -0.0940 C   0  0  0  0  0  2  0  0  0  0  0  0
   97.2130   15.0960   -1.5860 C   0  0  0  0  0  3  0  0  0  0  0  0
   96.7950   14.3630    0.6760 C   0  0  0  0  0  3  0  0  0  0  0  0
   95.4280   13.9240    0.3030 C   0  0  0  0  0  3  0  0  0  0  0  0
   94.5850   13.3430    1.2850 C   0  0  0  0  0  2  0  0  0  0  0  0
   93.3010   12.9650    0.8860 C   0  0  0  0  0  3  0  0  0  0  0  0
   92.9030   13.1450   -0.4620 C   0  0  0  0  0  2  0  0  0  0  0  0
   93.7500   13.7050   -1.4250 C   0  0  0  0  0  2  0  0  0  0  0  0
   95.0210   14.1070   -1.0250 C   0  0  0  0  0  3  0  0  0  0  0  0
   92.3190   12.3130    1.8700 C   0  0  0  0  0  2  0  0  0  0  0  0
   93.3840    5.2830   -3.6740 C   0  0  0  0  0  3  0  0  0  0  0  0
   94.8020    5.5190   -4.1680 C   0  0  0  0  0  2  0  0  0  0  0  0
   96.4660    5.8160   -5.9680 C   0  0  0  0  0  3  0  0  0  0  0  0
   95.0680    5.2970   -5.6650 C   0  0  0  0  0  2  0  0  0  0  0  0
   98.2070   15.7030   -2.5170 C   0  0  0  0  0  1  0  0  0  0  0  0
   90.1240   11.2780    1.0930 C   0  0  0  0  0  1  0  0  0  0  0  0
   93.3910    3.9840   -2.9290 C   0  0  0  0  0  3  0  0  0  0  0  0
   92.8610    6.4030   -2.8580 N   0  0  0  0  0  2  0  0  0  0  0  0
   95.8960   14.6940   -2.0260 N   0  0  0  0  0  2  0  0  0  0  0  0
   91.5580   11.2760    1.1440 N   0  0  0  0  0  0  0  0  0  0  0  0
   97.6460   14.9320   -0.2450 N   0  0  0  0  0  2  0  0  0  0  0  0
   94.7820    6.7580   -1.6080 O   0  0  0  0  0  1  0  0  0  0  0  0
   93.8430    3.8880   -1.7570 O   0  0  0  0  0  1  0  0  0  0  0  0
   92.9590    2.9440   -3.5070 O   0  0  0  0  0  1  0  0  0  0  0  0
   97.1780   14.2290    1.7930 O   0  0  0  0  0  1  0  0  0  0  0  0
   96.6220    7.0030   -6.3770 O   0  0  0  0  0  1  0  0  0  0  0  0
   97.4760    5.0720   -5.7800 O   0  0  0  0  0  1  0  0  0  0  0  0
   91.6460    9.1330   -0.7760 S   0  0  0  0  0  0  0  0  0  0  0  0
  1  2  1  0
  1 22  1  0
  1 26  1  0
  2  5  1  0
  2 32  1  0
  3  4  1  0
  3 24  1  0
  3 32  1  0
  4  5  1  0
  6 19  1  0
  6 23  1  0
  6 25  1  0
  7  8  1  0
  7 25  1  0
  7 29  1  0
  8  9  1  0
  8 13  1  0
  9 10  1  0
 10 11  1  0
 10 14  1  0
 11 12  1  0
 12 13  1  0
 13 23  1  0
 14 24  1  0
 15 16  1  0
 15 21  1  0
 15 22  1  0
 16 18  1  0
 17 18  1  0
 17 30  1  0
 17 31  1  0
 20 24  1  0
 21 27  1  0
 21 28  1  0
M  END
$$$$
