5x5q_C_D16_402
     RDKit          3D

 32 34  0  0  0  0  0  0  0  0999 V2000
   41.2780   61.4740   47.5140 C   0  0  0  0  0  3  0  0  0  0  0  0
   41.0270   62.6840   48.3620 C   0  0  0  0  0  3  0  0  0  0  0  0
   39.9690   64.6160   49.6690 C   0  0  0  0  0  3  0  0  0  0  0  0
   41.2810   64.3320   50.0050 C   0  0  0  0  0  2  0  0  0  0  0  0
   41.8290   63.2650   49.3020 C   0  0  0  0  0  2  0  0  0  0  0  0
   45.0400   69.5250   48.2320 C   0  0  0  0  0  3  0  0  0  0  0  0
   44.2520   68.7850   50.4600 C   0  0  0  0  0  3  0  0  0  0  0  0
   42.9660   68.3580   49.8790 C   0  0  0  0  0  3  0  0  0  0  0  0
   41.9920   67.7950   50.7350 C   0  0  0  0  0  2  0  0  0  0  0  0
   40.7940   67.4110   50.1570 C   0  0  0  0  0  3  0  0  0  0  0  0
   40.5830   67.5850   48.7780 C   0  0  0  0  0  2  0  0  0  0  0  0
   41.5620   68.1420   47.9500 C   0  0  0  0  0  2  0  0  0  0  0  0
   42.7750   68.5360   48.5070 C   0  0  0  0  0  3  0  0  0  0  0  0
   39.7100   66.7610   51.0020 C   0  0  0  0  0  2  0  0  0  0  0  0
   42.3360   59.0910   47.5810 C   0  0  0  0  0  3  0  0  0  0  0  0
   43.5220   59.0300   46.6190 C   0  0  0  0  0  2  0  0  0  0  0  0
   42.1990   59.6990   44.4190 C   0  0  0  0  0  3  0  0  0  0  0  0
   43.4270   59.8650   45.3060 C   0  0  0  0  0  2  0  0  0  0  0  0
   46.1700   70.1390   47.4400 C   0  0  0  0  0  1  0  0  0  0  0  0
   37.7220   65.5960   49.9820 C   0  0  0  0  0  1  0  0  0  0  0  0
   42.4330   58.0820   48.7300 C   0  0  0  0  0  3  0  0  0  0  0  0
   42.0780   60.4160   48.1500 N   0  0  0  0  0  2  0  0  0  0  0  0
   43.7930   69.1130   47.6330 N   0  0  0  0  0  2  0  0  0  0  0  0
   39.1370   65.6590   50.2260 N   0  0  0  0  0  0  0  0  0  0  0  0
   45.2290   69.3510   49.6370 N   0  0  0  0  0  2  0  0  0  0  0  0
   40.7250   61.3990   46.4430 O   0  0  0  0  0  1  0  0  0  0  0  0
   42.7940   56.8990   48.5380 O   0  0  0  0  0  1  0  0  0  0  0  0
   42.1220   58.3460   49.9330 O   0  0  0  0  0  1  0  0  0  0  0  0
   44.4160   68.6310   51.6420 O   0  0  0  0  0  1  0  0  0  0  0  0
   41.2290   58.9580   44.7340 O   0  0  0  0  0  1  0  0  0  0  0  0
   42.1330   60.3400   43.3310 O   0  0  0  0  0  1  0  0  0  0  0  0
   39.5180   63.4870   48.4490 S   0  0  0  0  0  0  0  0  0  0  0  0
  1  2  1  0
  1 22  1  0
  1 26  1  0
  2  5  1  0
  2 32  1  0
  3  4  1  0
  3 24  1  0
  3 32  1  0
  4  5  1  0
  6 19  1  0
  6 23  1  0
  6 25  1  0
  7  8  1  0
  7 25  1  0
  7 29  1  0
  8  9  1  0
  8 13  1  0
  9 10  1  0
 10 11  1  0
 10 14  1  0
 11 12  1  0
 12 13  1  0
 13 23  1  0
 14 24  1  0
 15 16  1  0
 15 21  1  0
 15 22  1  0
 16 18  1  0
 17 18  1  0
 17 30  1  0
 17 31  1  0
 20 24  1  0
 21 27  1  0
 21 28  1  0
M  END
$$$$
