5x66_F_MTX_402
     RDKit          3D

 33 35  0  0  0  0  0  0  0  0999 V2000
  123.2060  211.2910   46.0050 C   0  0  0  0  0  3  0  0  0  0  0  0
  123.8690  210.1740   46.7630 C   0  0  0  0  0  3  0  0  0  0  0  0
  125.1790  209.8700   46.5100 C   0  0  0  0  0  2  0  0  0  0  0  0
  125.8510  208.8510   47.1390 C   0  0  0  0  0  2  0  0  0  0  0  0
  125.2130  208.0800   48.0640 C   0  0  0  0  0  3  0  0  0  0  0  0
  123.8350  208.3660   48.3110 C   0  0  0  0  0  2  0  0  0  0  0  0
  123.1790  209.3840   47.6690 C   0  0  0  0  0  2  0  0  0  0  0  0
  120.3860  202.4700   46.8080 C   0  0  0  0  0  3  0  0  0  0  0  0
  121.2370  203.0820   48.9240 C   0  0  0  0  0  3  0  0  0  0  0  0
  122.2530  203.7870   48.2500 C   0  0  0  0  0  3  0  0  0  0  0  0
  124.2100  205.1140   48.3710 C   0  0  0  0  0  3  0  0  0  0  0  0
  124.2660  205.1230   46.9240 C   0  0  0  0  0  2  0  0  0  0  0  0
  122.3120  203.8020   46.8180 C   0  0  0  0  0  3  0  0  0  0  0  0
  125.2080  205.8360   49.2540 C   0  0  0  0  0  2  0  0  0  0  0  0
  123.6850  213.6090   44.6070 C   0  0  0  0  0  3  0  0  0  0  0  0
  123.0000  213.1500   43.3260 C   0  0  0  0  0  2  0  0  0  0  0  0
  123.5840  211.8650   40.9590 C   0  0  0  0  0  3  0  0  0  0  0  0
  123.5910  211.9710   42.5200 C   0  0  0  0  0  2  0  0  0  0  0  0
  127.3780  206.9580   48.6840 C   0  0  0  0  0  1  0  0  0  0  0  0
  123.0320  214.6700   45.4580 C   0  0  0  0  0  3  0  0  0  0  0  0
  124.0690  212.4240   45.4250 N   0  0  0  0  0  2  0  0  0  0  0  0
  121.3680  203.1210   46.1120 N   0  0  0  0  0  2  0  0  0  0  0  0
  125.9360  206.9760   48.6810 N   0  0  0  0  0  0  0  0  0  0  0  0
  120.3240  202.4120   48.2010 N   0  0  0  0  0  2  0  0  0  0  0  0
  123.1970  204.4320   48.9790 N   0  0  0  0  0  2  0  0  0  0  0  0
  123.3440  204.4920   46.1750 N   0  0  0  0  0  2  0  0  0  0  0  0
  119.3490  201.7890   46.0680 N   0  0  0  0  0  1  0  0  0  0  0  0
  121.1920  203.0730   50.3340 N   0  0  0  0  0  1  0  0  0  0  0  0
  121.9770  211.2220   45.8270 O   0  0  0  0  0  1  0  0  0  0  0  0
  123.4470  215.9310   45.3770 O   0  0  0  0  0  1  0  0  0  0  0  0
  122.0550  214.3380   46.3560 O   0  0  0  0  0  1  0  0  0  0  0  0
  123.0250  210.7960   40.3210 O   0  0  0  0  0  1  0  0  0  0  0  0
  124.1530  212.7930   40.2600 O   0  0  0  0  0  1  0  0  0  0  0  0
  1  2  1  0
  1 21  1  0
  1 29  1  0
  2  3  1  0
  2  7  1  0
  3  4  1  0
  4  5  1  0
  5  6  1  0
  5 23  1  0
  6  7  1  0
  8 22  1  0
  8 24  1  0
  8 27  1  0
  9 10  1  0
  9 24  1  0
  9 28  1  0
 10 13  1  0
 10 25  1  0
 11 12  1  0
 11 14  1  0
 11 25  1  0
 12 26  1  0
 13 22  1  0
 13 26  1  0
 14 23  1  0
 15 16  1  0
 15 20  1  0
 15 21  1  0
 16 18  1  0
 17 18  1  0
 17 32  1  0
 17 33  1  0
 19 23  1  0
 20 30  1  0
 20 31  1  0
M  END
$$$$
