5x66_E_MTX_402
     RDKit          3D

 33 35  0  0  0  0  0  0  0  0999 V2000
  204.3400  116.4360   -0.6940 C   0  0  0  0  0  3  0  0  0  0  0  0
  203.7060  117.6510   -0.1100 C   0  0  0  0  0  3  0  0  0  0  0  0
  204.2990  118.5210    0.7080 C   0  0  0  0  0  2  0  0  0  0  0  0
  203.6290  119.6180    1.2110 C   0  0  0  0  0  2  0  0  0  0  0  0
  202.3450  119.8350    0.8680 C   0  0  0  0  0  3  0  0  0  0  0  0
  201.7280  118.9590    0.0090 C   0  0  0  0  0  2  0  0  0  0  0  0
  202.4090  117.8990   -0.4640 C   0  0  0  0  0  2  0  0  0  0  0  0
  207.1650  125.4670    0.1600 C   0  0  0  0  0  3  0  0  0  0  0  0
  206.2180  124.7940    2.1690 C   0  0  0  0  0  3  0  0  0  0  0  0
  205.2470  124.1010    1.4510 C   0  0  0  0  0  3  0  0  0  0  0  0
  203.3490  122.7730    1.3510 C   0  0  0  0  0  3  0  0  0  0  0  0
  203.3920  122.8200   -0.0600 C   0  0  0  0  0  2  0  0  0  0  0  0
  205.2790  124.1420    0.0740 C   0  0  0  0  0  3  0  0  0  0  0  0
  202.3070  121.9960    2.0940 C   0  0  0  0  0  2  0  0  0  0  0  0
  205.7770  114.2130   -0.5910 C   0  0  0  0  0  3  0  0  0  0  0  0
  206.5670  113.5000    0.4270 C   0  0  0  0  0  2  0  0  0  0  0  0
  205.0420  113.0810    2.5930 C   0  0  0  0  0  3  0  0  0  0  0  0
  205.9550  112.5720    1.4610 C   0  0  0  0  0  2  0  0  0  0  0  0
  200.2550  121.1140    1.0460 C   0  0  0  0  0  1  0  0  0  0  0  0
  204.8080  113.2750   -1.1990 C   0  0  0  0  0  3  0  0  0  0  0  0
  205.1970  115.4080    0.0280 N   0  0  0  0  0  2  0  0  0  0  0  0
  206.2380  124.8200   -0.5000 N   0  0  0  0  0  2  0  0  0  0  0  0
  201.6300  120.9670    1.3500 N   0  0  0  0  0  0  0  0  0  0  0  0
  207.1720  125.4710    1.4990 N   0  0  0  0  0  2  0  0  0  0  0  0
  204.2940  123.4290    2.0500 N   0  0  0  0  0  2  0  0  0  0  0  0
  204.3400  123.4930   -0.6780 N   0  0  0  0  0  2  0  0  0  0  0  0
  208.1230  126.1600   -0.6370 N   0  0  0  0  0  1  0  0  0  0  0  0
  206.1830  124.7620    3.5390 N   0  0  0  0  0  1  0  0  0  0  0  0
  204.1180  116.2260   -1.8550 O   0  0  0  0  0  1  0  0  0  0  0  0
  204.7200  112.0220   -0.8710 O   0  0  0  0  0  1  0  0  0  0  0  0
  204.0030  113.6960   -2.1780 O   0  0  0  0  0  1  0  0  0  0  0  0
  204.0290  112.2960    3.0790 O   0  0  0  0  0  1  0  0  0  0  0  0
  205.3380  114.2630    3.0370 O   0  0  0  0  0  1  0  0  0  0  0  0
  1  2  1  0
  1 21  1  0
  1 29  1  0
  2  3  1  0
  2  7  1  0
  3  4  1  0
  4  5  1  0
  5  6  1  0
  5 23  1  0
  6  7  1  0
  8 22  1  0
  8 24  1  0
  8 27  1  0
  9 10  1  0
  9 24  1  0
  9 28  1  0
 10 13  1  0
 10 25  1  0
 11 12  1  0
 11 14  1  0
 11 25  1  0
 12 26  1  0
 13 22  1  0
 13 26  1  0
 14 23  1  0
 15 16  1  0
 15 20  1  0
 15 21  1  0
 16 18  1  0
 17 18  1  0
 17 32  1  0
 17 33  1  0
 19 23  1  0
 20 30  1  0
 20 31  1  0
M  END
$$$$
