5x66_C_MTX_402
     RDKit          3D

 33 35  0  0  0  0  0  0  0  0999 V2000
  150.6690  170.7070   47.8450 C   0  0  0  0  0  3  0  0  0  0  0  0
  149.9820  171.9110   48.2850 C   0  0  0  0  0  3  0  0  0  0  0  0
  148.7640  172.1620   47.8050 C   0  0  0  0  0  2  0  0  0  0  0  0
  148.0730  173.2640   48.2050 C   0  0  0  0  0  2  0  0  0  0  0  0
  148.6290  174.1070   49.0730 C   0  0  0  0  0  3  0  0  0  0  0  0
  149.8990  173.8520   49.5760 C   0  0  0  0  0  2  0  0  0  0  0  0
  150.5720  172.7480   49.1820 C   0  0  0  0  0  2  0  0  0  0  0  0
  153.5860  179.6020   48.8740 C   0  0  0  0  0  3  0  0  0  0  0  0
  152.5650  178.7640   50.7860 C   0  0  0  0  0  3  0  0  0  0  0  0
  151.5620  178.2080   49.9610 C   0  0  0  0  0  3  0  0  0  0  0  0
  149.6350  176.9760   49.6320 C   0  0  0  0  0  3  0  0  0  0  0  0
  149.7320  177.1600   48.2250 C   0  0  0  0  0  2  0  0  0  0  0  0
  151.6580  178.3840   48.5730 C   0  0  0  0  0  3  0  0  0  0  0  0
  148.5710  176.1900   50.3000 C   0  0  0  0  0  2  0  0  0  0  0  0
  152.4960  168.9950   47.9450 C   0  0  0  0  0  3  0  0  0  0  0  0
  153.9030  168.8390   48.3820 C   0  0  0  0  0  2  0  0  0  0  0  0
  154.7270  171.0560   47.1930 C   0  0  0  0  0  3  0  0  0  0  0  0
  154.9660  169.5960   47.6190 C   0  0  0  0  0  2  0  0  0  0  0  0
  146.5630  175.4300   49.0600 C   0  0  0  0  0  1  0  0  0  0  0  0
  151.6020  167.9600   48.4280 C   0  0  0  0  0  3  0  0  0  0  0  0
  151.9330  170.2170   48.4880 N   0  0  0  0  0  2  0  0  0  0  0  0
  152.6660  179.0890   48.1420 N   0  0  0  0  0  2  0  0  0  0  0  0
  147.9060  175.2360   49.4750 N   0  0  0  0  0  0  0  0  0  0  0  0
  153.5370  179.4590   50.1860 N   0  0  0  0  0  2  0  0  0  0  0  0
  150.5770  177.4960   50.4360 N   0  0  0  0  0  2  0  0  0  0  0  0
  150.7290  177.8650   47.6960 N   0  0  0  0  0  2  0  0  0  0  0  0
  154.6070  180.3520   48.2390 N   0  0  0  0  0  1  0  0  0  0  0  0
  152.5980  178.6740   52.1670 N   0  0  0  0  0  1  0  0  0  0  0  0
  150.2070  170.0640   46.9280 O   0  0  0  0  0  1  0  0  0  0  0  0
  150.9690  167.1910   47.5880 O   0  0  0  0  0  1  0  0  0  0  0  0
  151.4150  167.8950   49.7590 O   0  0  0  0  0  1  0  0  0  0  0  0
  155.4970  171.6800   46.3120 O   0  0  0  0  0  1  0  0  0  0  0  0
  153.7670  171.7090   47.7210 O   0  0  0  0  0  1  0  0  0  0  0  0
  1  2  1  0
  1 21  1  0
  1 29  1  0
  2  3  1  0
  2  7  1  0
  3  4  1  0
  4  5  1  0
  5  6  1  0
  5 23  1  0
  6  7  1  0
  8 22  1  0
  8 24  1  0
  8 27  1  0
  9 10  1  0
  9 24  1  0
  9 28  1  0
 10 13  1  0
 10 25  1  0
 11 12  1  0
 11 14  1  0
 11 25  1  0
 12 26  1  0
 13 22  1  0
 13 26  1  0
 14 23  1  0
 15 16  1  0
 15 20  1  0
 15 21  1  0
 16 18  1  0
 17 18  1  0
 17 32  1  0
 17 33  1  0
 19 23  1  0
 20 30  1  0
 20 31  1  0
M  END
$$$$
