5x66_A_MTX_402
     RDKit          3D

 33 35  0  0  0  0  0  0  0  0999 V2000
  157.4170  150.7140   24.1220 C   0  0  0  0  0  3  0  0  0  0  0  0
  156.1480  149.9490   24.3310 C   0  0  0  0  0  3  0  0  0  0  0  0
  155.8710  148.7080   23.8350 C   0  0  0  0  0  2  0  0  0  0  0  0
  154.6810  148.0350   24.1830 C   0  0  0  0  0  2  0  0  0  0  0  0
  153.7890  148.5890   25.0680 C   0  0  0  0  0  3  0  0  0  0  0  0
  154.0880  149.8610   25.6190 C   0  0  0  0  0  2  0  0  0  0  0  0
  155.2470  150.4920   25.2640 C   0  0  0  0  0  2  0  0  0  0  0  0
  148.0050  153.5260   24.7570 C   0  0  0  0  0  3  0  0  0  0  0  0
  148.7590  152.5020   26.6960 C   0  0  0  0  0  3  0  0  0  0  0  0
  149.4550  151.5690   25.9470 C   0  0  0  0  0  3  0  0  0  0  0  0
  150.8050  149.6990   25.7380 C   0  0  0  0  0  3  0  0  0  0  0  0
  150.7210  149.8320   24.3000 C   0  0  0  0  0  2  0  0  0  0  0  0
  149.3630  151.6860   24.5230 C   0  0  0  0  0  3  0  0  0  0  0  0
  151.6370  148.6160   26.3870 C   0  0  0  0  0  2  0  0  0  0  0  0
  160.1230  150.3010   23.7340 C   0  0  0  0  0  3  0  0  0  0  0  0
  160.9630  150.1880   22.4590 C   0  0  0  0  0  2  0  0  0  0  0  0
  163.4760  148.9670   21.9780 C   0  0  0  0  0  3  0  0  0  0  0  0
  162.5090  150.0260   22.6500 C   0  0  0  0  0  2  0  0  0  0  0  0
  152.2140  146.6470   24.9760 C   0  0  0  0  0  1  0  0  0  0  0  0
  160.3240  151.5160   24.5550 C   0  0  0  0  0  3  0  0  0  0  0  0
  158.6800  149.9260   23.8150 N   0  0  0  0  0  2  0  0  0  0  0  0
  148.6630  152.6610   23.9940 N   0  0  0  0  0  2  0  0  0  0  0  0
  152.5790  147.9630   25.4630 N   0  0  0  0  0  0  0  0  0  0  0  0
  148.0380  153.4940   26.0980 N   0  0  0  0  0  2  0  0  0  0  0  0
  150.1480  150.5950   26.5430 N   0  0  0  0  0  2  0  0  0  0  0  0
  150.0060  150.8130   23.6770 N   0  0  0  0  0  2  0  0  0  0  0  0
  147.2690  154.5600   24.1340 N   0  0  0  0  0  1  0  0  0  0  0  0
  148.7880  152.4390   28.0710 N   0  0  0  0  0  1  0  0  0  0  0  0
  157.4640  151.9410   24.3190 O   0  0  0  0  0  1  0  0  0  0  0  0
  159.8290  151.5150   25.7830 O   0  0  0  0  0  1  0  0  0  0  0  0
  161.0350  152.5310   24.0320 O   0  0  0  0  0  1  0  0  0  0  0  0
  164.5800  148.4030   22.5710 O   0  0  0  0  0  1  0  0  0  0  0  0
  163.2790  148.5810   20.7980 O   0  0  0  0  0  1  0  0  0  0  0  0
  1  2  1  0
  1 21  1  0
  1 29  1  0
  2  3  1  0
  2  7  1  0
  3  4  1  0
  4  5  1  0
  5  6  1  0
  5 23  1  0
  6  7  1  0
  8 22  1  0
  8 24  1  0
  8 27  1  0
  9 10  1  0
  9 24  1  0
  9 28  1  0
 10 13  1  0
 10 25  1  0
 11 12  1  0
 11 14  1  0
 11 25  1  0
 12 26  1  0
 13 22  1  0
 13 26  1  0
 14 23  1  0
 15 16  1  0
 15 20  1  0
 15 21  1  0
 16 18  1  0
 17 18  1  0
 17 32  1  0
 17 33  1  0
 19 23  1  0
 20 30  1  0
 20 31  1  0
M  END
$$$$
