5x67_B_7Z9_402
     RDKit          3D

 20 22  0  0  0  0  0  0  0  0999 V2000
   15.4650   43.0970   14.1050 C   0  0  0  0  0  1  0  0  0  0  0  0
   12.0980   40.9130   11.0080 C   0  0  0  0  0  3  0  0  0  0  0  0
   14.3750   44.0150   10.6250 C   0  0  0  0  0  3  0  0  0  0  0  0
   13.2160   44.6830   11.1940 C   0  0  0  0  0  2  0  0  0  0  0  0
   12.8320   45.8560   10.6290 C   0  0  0  0  0  2  0  0  0  0  0  0
   14.5480   45.7690    9.0480 C   0  0  0  0  0  2  0  0  0  0  0  0
   14.1480   42.3740   13.8960 C   0  0  0  0  0  3  0  0  0  0  0  0
   15.0470   44.5970    9.5600 C   0  0  0  0  0  2  0  0  0  0  0  0
   13.8150   41.9930   12.5980 C   0  0  0  0  0  3  0  0  0  0  0  0
   12.5500   41.3480   12.3930 C   0  0  0  0  0  3  0  0  0  0  0  0
   11.7390   41.1160   13.4310 C   0  0  0  0  0  3  0  0  0  0  0  0
   12.1290   41.4500   14.7760 C   0  0  0  0  0  2  0  0  0  0  0  0
   13.3310   42.0770   14.9650 C   0  0  0  0  0  2  0  0  0  0  0  0
   10.0930   40.1080   11.9570 C   0  0  0  0  0  3  0  0  0  0  0  0
   10.9100   40.3500   10.8410 N   0  0  0  0  0  2  0  0  0  0  0  0
    8.9010   39.4960   11.6970 N   0  0  0  0  0  1  0  0  0  0  0  0
   13.5100   46.3790    9.6000 N   0  0  0  0  0  2  0  0  0  0  0  0
   10.4940   40.4420   13.2540 N   0  0  0  0  0  2  0  0  0  0  0  0
   12.7520   41.0830   10.0420 O   0  0  0  0  0  1  0  0  0  0  0  0
   14.9710   42.4420   11.2930 S   0  0  0  0  0  0  0  0  0  0  0  0
  1  7  1  0
  2 10  1  0
  2 15  1  0
  2 19  1  0
  3  4  1  0
  3  8  1  0
  3 20  1  0
  4  5  1  0
  5 17  1  0
  6  8  1  0
  6 17  1  0
  7  9  1  0
  7 13  1  0
  9 10  1  0
  9 20  1  0
 10 11  1  0
 11 12  1  0
 11 18  1  0
 12 13  1  0
 14 15  1  0
 14 16  1  0
 14 18  1  0
M  END
$$$$
