6ojv_A_2XB_601
     RDKit          3D

 30 32  0  0  0  0  0  0  0  0999 V2000
   98.4190    2.5460  273.8400 C   0  0  0  0  0  2  0  0  0  0  0  0
   97.9280    0.6150  275.2450 C   0  0  0  0  0  2  0  0  0  0  0  0
   97.0520    2.8450  273.7530 C   0  0  0  0  0  2  0  0  0  0  0  0
   96.5510    0.9080  275.1540 C   0  0  0  0  0  2  0  0  0  0  0  0
  101.9100    2.9890  273.6910 C   0  0  0  0  0  2  0  0  0  0  0  0
  100.3520    1.1760  274.6480 C   0  0  0  0  0  2  0  0  0  0  0  0
   94.6520    2.3670  274.2960 C   0  0  0  0  0  3  0  0  0  0  0  0
  101.2040    5.8870  277.0360 C   0  0  0  0  0  3  0  0  0  0  0  0
   98.8630    1.4350  274.5800 C   0  0  0  0  0  3  0  0  0  0  0  0
   96.1070    2.0270  274.4070 C   0  0  0  0  0  3  0  0  0  0  0  0
  101.0480    2.5150  274.6510 C   0  0  0  0  0  3  0  0  0  0  0  0
  100.1820    3.7060  276.9000 C   0  0  0  0  0  3  0  0  0  0  0  0
  101.7180    4.5960  275.2470 C   0  0  0  0  0  3  0  0  0  0  0  0
  100.9280    3.5500  275.6360 C   0  0  0  0  0  3  0  0  0  0  0  0
   92.3370    1.6110  274.8410 C   0  0  0  0  0  3  0  0  0  0  0  0
   91.6670    0.9550  273.6030 C   0  0  0  0  0  2  0  0  0  0  0  0
   90.6210    1.8340  272.8820 C   0  0  0  0  0  2  0  0  0  0  0  0
   91.1860    2.6800  271.7390 C   0  0  0  0  0  3  0  0  0  0  0  0
   91.7830    1.2340  276.2200 C   0  0  0  0  0  3  0  0  0  0  0  0
  101.2240    6.9840  277.8720 N   0  0  0  0  0  1  0  0  0  0  0  0
  101.8860    5.7940  275.9270 N   0  0  0  0  0  2  0  0  0  0  0  0
  102.3190    4.2560  274.0610 N   0  0  0  0  0  2  0  0  0  0  0  0
  100.3670    4.8800  277.5360 N   0  0  0  0  0  2  0  0  0  0  0  0
   93.7940    1.4840  274.8280 N   0  0  0  0  0  2  0  0  0  0  0  0
   94.3000    3.4120  273.7480 O   0  0  0  0  0  1  0  0  0  0  0  0
   99.4440    2.8320  277.3430 O   0  0  0  0  0  1  0  0  0  0  0  0
   92.2300    2.4280  271.1400 O   0  0  0  0  0  1  0  0  0  0  0  0
   90.3930    3.7540  271.4590 O   0  0  0  0  0  1  0  0  0  0  0  0
   90.7860    2.0160  276.7250 O   0  0  0  0  0  1  0  0  0  0  0  0
   92.2220    0.2690  276.8490 O   0  0  0  0  0  1  0  0  0  0  0  0
  1  3  1  0
  1  9  1  0
  2  4  1  0
  2  9  1  0
  3 10  1  0
  4 10  1  0
  5 11  1  0
  5 22  1  0
  6  9  1  0
  6 11  1  0
  7 10  1  0
  7 24  1  0
  7 25  1  0
  8 20  1  0
  8 21  1  0
  8 23  1  0
 11 14  1  0
 12 14  1  0
 12 23  1  0
 12 26  1  0
 13 14  1  0
 13 21  1  0
 13 22  1  0
 15 16  1  0
 15 19  1  0
 15 24  1  0
 16 17  1  0
 17 18  1  0
 18 27  1  0
 18 28  1  0
 19 29  1  0
 19 30  1  0
M  END
$$$$
