6ojv_C_2XB_601
     RDKit          3D

 30 32  0  0  0  0  0  0  0  0999 V2000
  140.5530    7.4630  234.0100 C   0  0  0  0  0  2  0  0  0  0  0  0
  142.9040    7.6330  233.4570 C   0  0  0  0  0  2  0  0  0  0  0  0
  140.2330    8.4280  233.0480 C   0  0  0  0  0  2  0  0  0  0  0  0
  142.5930    8.6120  232.4840 C   0  0  0  0  0  2  0  0  0  0  0  0
  139.9950    5.0320  236.4330 C   0  0  0  0  0  2  0  0  0  0  0  0
  142.1060    5.9870  235.2890 C   0  0  0  0  0  2  0  0  0  0  0  0
  140.8630   10.0470  231.2520 C   0  0  0  0  0  3  0  0  0  0  0  0
  138.8480    2.3880  232.9960 C   0  0  0  0  0  3  0  0  0  0  0  0
  141.8740    7.0540  234.2320 C   0  0  0  0  0  3  0  0  0  0  0  0
  141.2500    9.0190  232.2760 C   0  0  0  0  0  3  0  0  0  0  0  0
  140.8710    5.1110  235.3740 C   0  0  0  0  0  3  0  0  0  0  0  0
  140.7910    3.8130  233.0110 C   0  0  0  0  0  3  0  0  0  0  0  0
  139.2230    3.6340  234.8540 C   0  0  0  0  0  3  0  0  0  0  0  0
  140.3640    4.2160  234.3690 C   0  0  0  0  0  3  0  0  0  0  0  0
  141.6710   11.7810  229.6600 C   0  0  0  0  0  3  0  0  0  0  0  0
  142.0630   13.2100  230.1310 C   0  0  0  0  0  2  0  0  0  0  0  0
  140.9080   14.2400  230.0910 C   0  0  0  0  0  2  0  0  0  0  0  0
  139.8220   14.0260  231.1520 C   0  0  0  0  0  3  0  0  0  0  0  0
  142.2260   11.2810  228.3150 C   0  0  0  0  0  3  0  0  0  0  0  0
  138.2130    1.4850  232.1700 N   0  0  0  0  0  1  0  0  0  0  0  0
  138.4310    2.7070  234.1920 N   0  0  0  0  0  2  0  0  0  0  0  0
  138.9950    4.1300  236.1140 N   0  0  0  0  0  2  0  0  0  0  0  0
  140.0010    2.9130  232.3940 N   0  0  0  0  0  2  0  0  0  0  0  0
  141.8550   10.7520  230.6860 N   0  0  0  0  0  2  0  0  0  0  0  0
  139.6770   10.2020  230.9560 O   0  0  0  0  0  1  0  0  0  0  0  0
  141.7980    4.2680  232.4770 O   0  0  0  0  0  1  0  0  0  0  0  0
  140.0420   13.8000  232.3400 O   0  0  0  0  0  1  0  0  0  0  0  0
  138.5660   14.1140  230.6280 O   0  0  0  0  0  1  0  0  0  0  0  0
  141.3230   10.9990  227.3300 O   0  0  0  0  0  1  0  0  0  0  0  0
  143.4330   11.1260  228.1250 O   0  0  0  0  0  1  0  0  0  0  0  0
  1  3  1  0
  1  9  1  0
  2  4  1  0
  2  9  1  0
  3 10  1  0
  4 10  1  0
  5 11  1  0
  5 22  1  0
  6  9  1  0
  6 11  1  0
  7 10  1  0
  7 24  1  0
  7 25  1  0
  8 20  1  0
  8 21  1  0
  8 23  1  0
 11 14  1  0
 12 14  1  0
 12 23  1  0
 12 26  1  0
 13 14  1  0
 13 21  1  0
 13 22  1  0
 15 16  1  0
 15 19  1  0
 15 24  1  0
 16 17  1  0
 17 18  1  0
 18 27  1  0
 18 28  1  0
 19 29  1  0
 19 30  1  0
M  END
$$$$
