6pf6_C_OEJ_601
     RDKit          3D

 33 36  0  0  0  0  0  0  0  0999 V2000
   60.0770   37.3450   43.2200 C   0  0  0  0  0  3  0  0  0  0  0  0
   57.9070   32.3290   44.4240 C   0  0  0  0  0  2  0  0  0  0  0  0
   58.3440   31.2150   45.1800 C   0  0  0  0  0  3  0  0  0  0  0  0
   59.7270   30.9600   45.2910 C   0  0  0  0  0  2  0  0  0  0  0  0
   60.6620   31.8050   44.6680 C   0  0  0  0  0  2  0  0  0  0  0  0
   57.3830   30.2790   45.8520 C   0  0  0  0  0  3  0  0  0  0  0  0
   54.9840   29.5490   45.7460 C   0  0  0  0  0  3  0  0  0  0  0  0
   54.9440   28.8790   46.9930 C   0  0  0  0  0  2  0  0  0  0  0  0
   53.8310   28.1110   47.3830 C   0  0  0  0  0  3  0  0  0  0  0  0
   52.7350   28.0090   46.5060 C   0  0  0  0  0  2  0  0  0  0  0  0
   52.7580   28.6630   45.2610 C   0  0  0  0  0  2  0  0  0  0  0  0
   60.5300   36.2520   43.9100 C   0  0  0  0  0  3  0  0  0  0  0  0
   53.8720   29.4360   44.8560 C   0  0  0  0  0  3  0  0  0  0  0  0
   53.8230   30.1110   43.5000 C   0  0  0  0  0  3  0  0  0  0  0  0
   53.8060   27.4110   48.7100 C   0  0  0  0  0  3  0  0  0  0  0  0
   60.6810   36.3930   45.3730 C   0  0  0  0  0  3  0  0  0  0  0  0
   59.8930   38.6540   45.0570 C   0  0  0  0  0  3  0  0  0  0  0  0
   60.7470   35.2000   42.9660 C   0  0  0  0  0  3  0  0  0  0  0  0
   60.4170   35.7040   41.7280 C   0  0  0  0  0  2  0  0  0  0  0  0
   61.2510   33.8090   43.2550 C   0  0  0  0  0  2  0  0  0  0  0  0
   60.2270   32.9130   43.9200 C   0  0  0  0  0  3  0  0  0  0  0  0
   58.8460   33.1740   43.7980 C   0  0  0  0  0  2  0  0  0  0  0  0
   59.7440   38.5760   43.7630 N   0  0  0  0  0  2  0  0  0  0  0  0
   60.3500   37.6010   45.8680 N   0  0  0  0  0  2  0  0  0  0  0  0
   60.0070   37.0120   41.8890 N   0  0  0  0  0  2  0  0  0  0  0  0
   59.6190   39.7840   45.7990 N   0  0  0  0  0  1  0  0  0  0  0  0
   56.1280   30.3100   45.3650 N   0  0  0  0  0  2  0  0  0  0  0  0
   61.0810   35.4800   46.0920 O   0  0  0  0  0  1  0  0  0  0  0  0
   57.7800   29.5520   46.7630 O   0  0  0  0  0  1  0  0  0  0  0  0
   54.0330   31.4590   43.5300 O   0  0  0  0  0  1  0  0  0  0  0  0
   53.6130   29.4960   42.4530 O   0  0  0  0  0  1  0  0  0  0  0  0
   54.3380   27.8880   49.7150 O   0  0  0  0  0  1  0  0  0  0  0  0
   53.1600   26.2100   48.6910 O   0  0  0  0  0  1  0  0  0  0  0  0
  1 12  1  0
  1 23  1  0
  1 25  1  0
  2  3  1  0
  2 22  1  0
  3  4  1  0
  3  6  1  0
  4  5  1  0
  5 21  1  0
  6 27  1  0
  6 29  1  0
  7  8  1  0
  7 13  1  0
  7 27  1  0
  8  9  1  0
  9 10  1  0
  9 15  1  0
 10 11  1  0
 11 13  1  0
 12 16  1  0
 12 18  1  0
 13 14  1  0
 14 30  1  0
 14 31  1  0
 15 32  1  0
 15 33  1  0
 16 24  1  0
 16 28  1  0
 17 23  1  0
 17 24  1  0
 17 26  1  0
 18 19  1  0
 18 20  1  0
 19 25  1  0
 20 21  1  0
 21 22  1  0
M  END
$$$$
