6qyq_D_FFO_402
     RDKit          3D

 34 36  0  0  0  0  0  0  0  0999 V2000
   -8.9430   49.7140   84.4360 C   0  0  0  0  0  3  0  0  0  0  0  0
   -8.3390   48.3950   84.8170 C   0  0  0  0  0  3  0  0  0  0  0  0
   -9.0720   47.2310   84.6090 C   0  0  0  0  0  2  0  0  0  0  0  0
   -8.5590   46.0080   84.9790 C   0  0  0  0  0  2  0  0  0  0  0  0
   -7.2970   45.9320   85.5780 C   0  0  0  0  0  3  0  0  0  0  0  0
   -6.5600   47.0960   85.7970 C   0  0  0  0  0  2  0  0  0  0  0  0
   -7.0840   48.3180   85.4190 C   0  0  0  0  0  2  0  0  0  0  0  0
   -9.2430   42.9900   81.3130 C   0  0  0  0  0  3  0  0  0  0  0  0
   -7.1290   43.3990   82.2300 C   0  0  0  0  0  3  0  0  0  0  0  0
   -7.4490   42.6430   83.3740 C   0  0  0  0  0  3  0  0  0  0  0  0
   -5.1870   42.3460   84.2710 C   0  0  0  0  0  2  0  0  0  0  0  0
   -7.1820   42.2830   85.8290 C   0  0  0  0  0  3  0  0  0  0  0  0
   -8.3280   41.2660   85.8150 C   0  0  0  0  0  2  0  0  0  0  0  0
   -8.7210   42.0480   83.4470 C   0  0  0  0  0  3  0  0  0  0  0  0
   -7.6380   43.6280   86.4160 C   0  0  0  0  0  2  0  0  0  0  0  0
   -8.6810   52.1440   84.5440 C   0  0  0  0  0  3  0  0  0  0  0  0
   -8.8160   52.6830   85.9730 C   0  0  0  0  0  2  0  0  0  0  0  0
  -10.3220   54.0700   87.5090 C   0  0  0  0  0  3  0  0  0  0  0  0
   -9.7910   53.8390   86.0990 C   0  0  0  0  0  2  0  0  0  0  0  0
   -7.7600   53.0320   83.6880 C   0  0  0  0  0  3  0  0  0  0  0  0
   -8.1570   50.7860   84.5580 N   0  0  0  0  0  2  0  0  0  0  0  0
   -9.6000   42.2470   82.4030 N   0  0  0  0  0  2  0  0  0  0  0  0
   -6.8020   44.7210   85.9500 N   0  0  0  0  0  2  0  0  0  0  0  0
   -8.0450   43.5600   81.2080 N   0  0  0  0  0  2  0  0  0  0  0  0
   -6.5500   42.4430   84.4660 N   0  0  0  0  0  0  0  0  0  0  0  0
   -9.0830   41.3010   84.5620 N   0  0  0  0  0  2  0  0  0  0  0  0
  -10.1330   43.1370   80.3350 N   0  0  0  0  0  1  0  0  0  0  0  0
  -10.1270   49.7860   84.1060 O   0  0  0  0  0  1  0  0  0  0  0  0
   -6.5080   52.9260   83.8690 O   0  0  0  0  0  1  0  0  0  0  0  0
   -8.3240   53.7930   82.8710 O   0  0  0  0  0  1  0  0  0  0  0  0
   -6.0240   43.9540   82.0970 O   0  0  0  0  0  1  0  0  0  0  0  0
   -4.3390   42.6180   85.1220 O   0  0  0  0  0  1  0  0  0  0  0  0
  -10.8150   53.0920   88.1290 O   0  0  0  0  0  1  0  0  0  0  0  0
  -10.2370   55.2310   87.9910 O   0  0  0  0  0  1  0  0  0  0  0  0
  1  2  1  0
  1 21  1  0
  1 28  1  0
  2  3  1  0
  2  7  1  0
  3  4  1  0
  4  5  1  0
  5  6  1  0
  5 23  1  0
  6  7  1  0
  8 22  1  0
  8 24  1  0
  8 27  1  0
  9 10  1  0
  9 24  1  0
  9 31  1  0
 10 14  1  0
 10 25  1  0
 11 25  1  0
 11 32  1  0
 12 13  1  0
 12 15  1  0
 12 25  1  0
 13 26  1  0
 14 22  1  0
 14 26  1  0
 15 23  1  0
 16 17  1  0
 16 20  1  0
 16 21  1  0
 17 19  1  0
 18 19  1  0
 18 33  1  0
 18 34  1  0
 20 29  1  0
 20 30  1  0
M  END
$$$$
