6r2e_F_FFO_403
     RDKit          3D

 34 36  0  0  0  0  0  0  0  0999 V2000
   50.3180  -83.6430  -19.6590 C   0  0  0  0  0  3  0  0  0  0  0  0
   49.2810  -82.9230  -20.4760 C   0  0  0  0  0  3  0  0  0  0  0  0
   49.4350  -81.5930  -20.8930 C   0  0  0  0  0  2  0  0  0  0  0  0
   48.4730  -80.9860  -21.6810 C   0  0  0  0  0  2  0  0  0  0  0  0
   47.3140  -81.7100  -22.0540 C   0  0  0  0  0  3  0  0  0  0  0  0
   47.1630  -83.0390  -21.6140 C   0  0  0  0  0  2  0  0  0  0  0  0
   48.1380  -83.6370  -20.8420 C   0  0  0  0  0  2  0  0  0  0  0  0
   42.8480  -82.8680  -19.2520 C   0  0  0  0  0  3  0  0  0  0  0  0
   43.6010  -80.8260  -20.1150 C   0  0  0  0  0  3  0  0  0  0  0  0
   43.3470  -81.2770  -21.4560 C   0  0  0  0  0  3  0  0  0  0  0  0
   43.5290  -79.1400  -22.8240 C   0  0  0  0  0  2  0  0  0  0  0  0
   44.0260  -81.3400  -23.8200 C   0  0  0  0  0  3  0  0  0  0  0  0
   43.0010  -82.4450  -24.0830 C   0  0  0  0  0  2  0  0  0  0  0  0
   42.8400  -82.5840  -21.6120 C   0  0  0  0  0  3  0  0  0  0  0  0
   45.4360  -81.9350  -23.6760 C   0  0  0  0  0  2  0  0  0  0  0  0
   52.4340  -83.5380  -18.4590 C   0  0  0  0  0  3  0  0  0  0  0  0
   53.3290  -84.4850  -19.2830 C   0  0  0  0  0  2  0  0  0  0  0  0
   55.0910  -84.7000  -21.1660 C   0  0  0  0  0  3  0  0  0  0  0  0
   54.2140  -83.7890  -20.3140 C   0  0  0  0  0  2  0  0  0  0  0  0
   53.2070  -82.4420  -17.7000 C   0  0  0  0  0  3  0  0  0  0  0  0
   51.3820  -82.9420  -19.2690 N   0  0  0  0  0  2  0  0  0  0  0  0
   42.5810  -83.3440  -20.5040 N   0  0  0  0  0  2  0  0  0  0  0  0
   46.3100  -81.1420  -22.8280 N   0  0  0  0  0  2  0  0  0  0  0  0
   43.3580  -81.6500  -19.0460 N   0  0  0  0  0  2  0  0  0  0  0  0
   43.6120  -80.5160  -22.6460 N   0  0  0  0  0  0  0  0  0  0  0  0
   42.5770  -83.0880  -22.8470 N   0  0  0  0  0  2  0  0  0  0  0  0
   42.5660  -83.6640  -18.2170 N   0  0  0  0  0  1  0  0  0  0  0  0
   50.2030  -84.8430  -19.4090 O   0  0  0  0  0  1  0  0  0  0  0  0
   53.0160  -81.2550  -18.0370 O   0  0  0  0  0  1  0  0  0  0  0  0
   53.9870  -82.8210  -16.8180 O   0  0  0  0  0  1  0  0  0  0  0  0
   44.0660  -79.7050  -19.8470 O   0  0  0  0  0  1  0  0  0  0  0  0
   44.5110  -78.3730  -22.7130 O   0  0  0  0  0  1  0  0  0  0  0  0
   54.5080  -85.3450  -22.0780 O   0  0  0  0  0  1  0  0  0  0  0  0
   56.3720  -84.7480  -20.9530 O   0  0  0  0  0  1  0  0  0  0  0  0
  1  2  1  0
  1 21  1  0
  1 28  1  0
  2  3  1  0
  2  7  1  0
  3  4  1  0
  4  5  1  0
  5  6  1  0
  5 23  1  0
  6  7  1  0
  8 22  1  0
  8 24  1  0
  8 27  1  0
  9 10  1  0
  9 24  1  0
  9 31  1  0
 10 14  1  0
 10 25  1  0
 11 25  1  0
 11 32  1  0
 12 13  1  0
 12 15  1  0
 12 25  1  0
 13 26  1  0
 14 22  1  0
 14 26  1  0
 15 23  1  0
 16 17  1  0
 16 20  1  0
 16 21  1  0
 17 19  1  0
 18 19  1  0
 18 33  1  0
 18 34  1  0
 20 29  1  0
 20 30  1  0
M  END
$$$$
