6y08_B_08D_502
     RDKit          3D

 17 18  0  0  0  0  0  0  0  0999 V2000
   47.3610  -35.4460  -24.3510 C   0  0  0  0  0  3  0  0  0  0  0  0
   41.4320  -36.2270  -23.9860 C   0  0  0  0  0  3  0  0  0  0  0  0
   40.6280  -37.1060  -24.7500 C   0  0  0  0  0  2  0  0  0  0  0  0
   39.5530  -36.3390  -25.1210 C   0  0  0  0  0  3  0  0  0  0  0  0
   46.9630  -34.4070  -23.5360 C   0  0  0  0  0  2  0  0  0  0  0  0
   38.3440  -36.5990  -25.9060 C   0  0  0  0  0  1  0  0  0  0  0  0
   45.7650  -34.4350  -22.8520 C   0  0  0  0  0  2  0  0  0  0  0  0
   44.9990  -35.5550  -23.0220 C   0  0  0  0  0  3  0  0  0  0  0  0
   45.3580  -36.6100  -23.8250 C   0  0  0  0  0  2  0  0  0  0  0  0
   46.5540  -36.5500  -24.4960 C   0  0  0  0  0  2  0  0  0  0  0  0
   42.6520  -36.6210  -23.4140 N   0  0  0  0  0  2  0  0  0  0  0  0
   40.8910  -35.0050  -23.8980 N   0  0  0  0  0  2  0  0  0  0  0  0
   48.5750  -35.3830  -25.0390 N   0  0  0  0  0  1  0  0  0  0  0  0
   42.9080  -34.3370  -22.1150 O   0  0  0  0  0  1  0  0  0  0  0  0
   43.6460  -36.5220  -21.0320 O   0  0  0  0  0  1  0  0  0  0  0  0
   39.6940  -35.0810  -24.6220 O   0  0  0  0  0  0  0  0  0  0  0  0
   43.4450  -35.6820  -22.1990 S   0  0  0  0  0  4  0  0  0  0  0  0
  1  5  1  0
  1 10  1  0
  1 13  1  0
  2  3  1  0
  2 11  1  0
  2 12  1  0
  3  4  1  0
  4  6  1  0
  4 16  1  0
  5  7  1  0
  7  8  1  0
  8  9  1  0
  8 17  1  0
  9 10  1  0
 11 17  1  0
 12 16  1  0
 14 17  1  0
 15 17  1  0
M  END
$$$$
