6zxo_D_D16_401
     RDKit          3D

 32 34  0  0  0  0  0  0  0  0999 V2000
   -9.5910   57.4710   54.0290 C   0  0  0  0  0  3  0  0  0  0  0  0
  -10.3810   56.6210   53.0830 C   0  0  0  0  0  3  0  0  0  0  0  0
  -11.7650   55.4550   51.3930 C   0  0  0  0  0  3  0  0  0  0  0  0
  -11.0040   54.6110   52.1270 C   0  0  0  0  0  2  0  0  0  0  0  0
  -10.2370   55.2640   53.0450 C   0  0  0  0  0  2  0  0  0  0  0  0
  -10.4190   57.9720   44.6490 C   0  0  0  0  0  3  0  0  0  0  0  0
   -9.8580   56.6400   46.5420 C   0  0  0  0  0  3  0  0  0  0  0  0
  -11.2680   56.5930   46.8890 C   0  0  0  0  0  3  0  0  0  0  0  0
  -11.6590   55.8920   48.0270 C   0  0  0  0  0  2  0  0  0  0  0  0
  -13.0240   55.8940   48.3080 C   0  0  0  0  0  3  0  0  0  0  0  0
  -13.9320   56.5750   47.4540 C   0  0  0  0  0  2  0  0  0  0  0  0
  -13.5630   57.2710   46.2900 C   0  0  0  0  0  2  0  0  0  0  0  0
  -12.2170   57.3120   45.9830 C   0  0  0  0  0  3  0  0  0  0  0  0
  -13.5640   55.2030   49.5390 C   0  0  0  0  0  2  0  0  0  0  0  0
   -8.8670   59.3560   55.3050 C   0  0  0  0  0  3  0  0  0  0  0  0
   -7.7430   60.2370   54.7750 C   0  0  0  0  0  2  0  0  0  0  0  0
   -5.3850   60.3320   53.9180 C   0  0  0  0  0  3  0  0  0  0  0  0
   -6.3480   59.6170   54.8770 C   0  0  0  0  0  2  0  0  0  0  0  0
   -9.9410   58.6870   43.4320 C   0  0  0  0  0  1  0  0  0  0  0  0
  -12.3180   53.3050   50.4200 C   0  0  0  0  0  1  0  0  0  0  0  0
   -9.7060   60.1520   56.2550 C   0  0  0  0  0  3  0  0  0  0  0  0
   -9.6830   58.7840   54.2210 N   0  0  0  0  0  2  0  0  0  0  0  0
  -11.7490   57.9660   44.8990 N   0  0  0  0  0  2  0  0  0  0  0  0
  -12.5260   54.7530   50.4690 N   0  0  0  0  0  0  0  0  0  0  0  0
   -9.4920   57.3330   45.4360 N   0  0  0  0  0  2  0  0  0  0  0  0
   -8.7510   56.8510   54.6850 O   0  0  0  0  0  1  0  0  0  0  0  0
  -10.6900   60.7450   55.7870 O   0  0  0  0  0  1  0  0  0  0  0  0
   -9.4200   60.1930   57.4720 O   0  0  0  0  0  1  0  0  0  0  0  0
   -9.0770   56.0410   47.3010 O   0  0  0  0  0  1  0  0  0  0  0  0
   -5.8660   61.2180   53.1410 O   0  0  0  0  0  1  0  0  0  0  0  0
   -4.1470   60.0090   53.9300 O   0  0  0  0  0  1  0  0  0  0  0  0
  -11.5340   57.1310   51.8700 S   0  0  0  0  0  0  0  0  0  0  0  0
  1  2  1  0
  1 22  1  0
  1 26  1  0
  2  5  1  0
  2 32  1  0
  3  4  1  0
  3 24  1  0
  3 32  1  0
  4  5  1  0
  6 19  1  0
  6 23  1  0
  6 25  1  0
  7  8  1  0
  7 25  1  0
  7 29  1  0
  8  9  1  0
  8 13  1  0
  9 10  1  0
 10 11  1  0
 10 14  1  0
 11 12  1  0
 12 13  1  0
 13 23  1  0
 14 24  1  0
 15 16  1  0
 15 21  1  0
 15 22  1  0
 16 18  1  0
 17 18  1  0
 17 30  1  0
 17 31  1  0
 20 24  1  0
 21 27  1  0
 21 28  1  0
M  END
$$$$
