6zxo_A_D16_401
     RDKit          3D

 32 34  0  0  0  0  0  0  0  0999 V2000
   -8.1230    9.1930   -0.0070 C   0  0  0  0  0  3  0  0  0  0  0  0
   -6.8940    8.3830    0.2340 C   0  0  0  0  0  3  0  0  0  0  0  0
   -4.6780    7.6480    0.8990 C   0  0  0  0  0  3  0  0  0  0  0  0
   -5.3380    6.6540    0.2050 C   0  0  0  0  0  2  0  0  0  0  0  0
   -6.6060    7.0800   -0.1730 C   0  0  0  0  0  2  0  0  0  0  0  0
   -4.8300    9.5670    7.8950 C   0  0  0  0  0  3  0  0  0  0  0  0
   -5.2590    7.9240    6.2500 C   0  0  0  0  0  3  0  0  0  0  0  0
   -4.2570    8.5630    5.3570 C   0  0  0  0  0  3  0  0  0  0  0  0
   -3.9340    8.1100    4.0670 C   0  0  0  0  0  2  0  0  0  0  0  0
   -2.9760    8.8330    3.3230 C   0  0  0  0  0  3  0  0  0  0  0  0
   -2.3400    9.9600    3.8660 C   0  0  0  0  0  2  0  0  0  0  0  0
   -2.6340   10.4300    5.1560 C   0  0  0  0  0  2  0  0  0  0  0  0
   -3.5810    9.7610    5.9270 C   0  0  0  0  0  3  0  0  0  0  0  0
   -2.5650    8.4570    1.9210 C   0  0  0  0  0  2  0  0  0  0  0  0
  -10.2990    9.2530   -1.3190 C   0  0  0  0  0  3  0  0  0  0  0  0
  -10.3360    9.7710   -2.7900 C   0  0  0  0  0  2  0  0  0  0  0  0
  -12.0740   10.2650   -4.7370 C   0  0  0  0  0  3  0  0  0  0  0  0
  -11.5010    9.2870   -3.6870 C   0  0  0  0  0  2  0  0  0  0  0  0
   -5.1260   10.0860    9.2780 C   0  0  0  0  0  1  0  0  0  0  0  0
   -2.9300    6.0470    1.3380 C   0  0  0  0  0  1  0  0  0  0  0  0
  -11.3500    8.2180   -0.9880 C   0  0  0  0  0  3  0  0  0  0  0  0
   -8.9960    8.7040   -0.9090 N   0  0  0  0  0  2  0  0  0  0  0  0
   -3.9010   10.1890    7.1530 N   0  0  0  0  0  2  0  0  0  0  0  0
   -3.4260    7.4190    1.3770 N   0  0  0  0  0  0  0  0  0  0  0  0
   -5.4720    8.4610    7.4680 N   0  0  0  0  0  2  0  0  0  0  0  0
   -8.2610   10.2540    0.5750 O   0  0  0  0  0  1  0  0  0  0  0  0
  -10.9660    7.0940   -0.5850 O   0  0  0  0  0  1  0  0  0  0  0  0
  -12.5600    8.5060   -1.1040 O   0  0  0  0  0  1  0  0  0  0  0  0
   -5.9010    6.9000    5.8990 O   0  0  0  0  0  1  0  0  0  0  0  0
  -12.1050    9.9350   -5.9530 O   0  0  0  0  0  1  0  0  0  0  0  0
  -12.5480   11.3800   -4.3950 O   0  0  0  0  0  1  0  0  0  0  0  0
   -5.5600    9.1180    1.1050 S   0  0  0  0  0  0  0  0  0  0  0  0
  1  2  1  0
  1 22  1  0
  1 26  1  0
  2  5  1  0
  2 32  1  0
  3  4  1  0
  3 24  1  0
  3 32  1  0
  4  5  1  0
  6 19  1  0
  6 23  1  0
  6 25  1  0
  7  8  1  0
  7 25  1  0
  7 29  1  0
  8  9  1  0
  8 13  1  0
  9 10  1  0
 10 11  1  0
 10 14  1  0
 11 12  1  0
 12 13  1  0
 13 23  1  0
 14 24  1  0
 15 16  1  0
 15 21  1  0
 15 22  1  0
 16 18  1  0
 17 18  1  0
 17 30  1  0
 17 31  1  0
 20 24  1  0
 21 27  1  0
 21 28  1  0
M  END
$$$$
